 LISTING FILE: Griftpark_mt.list
                         UNIT  16

 OPENING mt3d_link.ftl
 FILE TYPE:FTL   UNIT  10

 OPENING Griftpark_mt.btn
 FILE TYPE:BTN   UNIT  31

 OPENING Griftpark_mt.adv
 FILE TYPE:ADV   UNIT  32

 OPENING Griftpark_mt.dsp
 FILE TYPE:DSP   UNIT  33

 OPENING Griftpark_mt.rct
 FILE TYPE:RCT   UNIT  36

 OPENING Griftpark_mt.ssm
 FILE TYPE:SSM   UNIT  34

 OPENING Griftpark_mt.gcg
 FILE TYPE:GCG   UNIT  35

                              +++++++++++++++++++++++++++++++++++++++++++++++++++++++++++++++++++++++
                              +                                                                     +
                              +                              MT3D-USGS                              +
                              +             A Modular 3D Multi-Species Transport Model              +
                              +    For Simulation of Advection, Dispersion and Chemical Reactions   +
                              +                of Contaminants in Groundwater Systems               +
                              +                                                                     +
                              +++++++++++++++++++++++++++++++++++++++++++++++++++++++++++++++++++++++

  ----- 
 | M T | ## BTN for MT3DMS, generated by Flopy.                                          
 | 3 D | ##                                                                              
  ----- 
 THE TRANSPORT MODEL CONSISTS OF    29 LAYER(S)  108 ROW(S)   64 COLUMN(S)
 NUMBER OF STRESS PERIOD(S) FOR TRANSPORT SIMULATION =    1
 NUMBER OF ALL COMPONENTS INCLUDED IN SIMULATION =    2
 NUMBER OF MOBILE COMPONENTS INCLUDED IN SIMULATION =    2
 UNIT FOR TIME IS D   ;  UNIT FOR LENGTH IS M   ;  UNIT FOR MASS IS KG  
 OPTIONAL PACKAGES INCLUDED IN CURRENT SIMULATION:
  o ADV   ON UNIT 32
  o DSP   ON UNIT 33
  o SSM   ON UNIT 34
  o RCT   ON UNIT 36
  o GCG   ON UNIT 35


 BTN1 -- BASIC TRANSPORT PACKAGE, VERSION 1, MAY 2016, INPUT READ FROM UNIT 31

 BTN PACKAGE KEYWORD INPUT: 
 DRYCELL OPTION NOT SET
  DRY CELL BUDGET OMITTED FROM GLOBAL MASS BALANCE SUMMARY

 LAYER NUMBER  AQUIFER TYPE
 ------------  ------------
       1            0
       2            0
       3            0
       4            0
       5            0
       6            0
       7            0
       8            0
       9            0
      10            0
      11            0
      12            0
      13            0
      14            0
      15            0
      16            0
      17            0
      18            0
      19            0
      20            0
      21            0
      22            0
      23            0
      24            0
      25            0
      26            0
      27            0
      28            0
      29            0

                           WIDTH ALONG ROWS (DELR)  READ ON UNIT  31 USING FORMAT: "          (64E15.6) "
                           -----------------------------------------------------------------------------

                           WIDTH ALONG COLS (DELC)  READ ON UNIT  31 USING FORMAT: "         (108E15.6) "
                           -----------------------------------------------------------------------------
                                       TOP ELEV. OF 1ST LAYER   =   2.500000    
                                       CELL THICKNESS (DZ)      =   5.000000     FOR LAYER  1
                                       CELL THICKNESS (DZ)      =   2.500000     FOR LAYER  2
                                       CELL THICKNESS (DZ)      =   2.500000     FOR LAYER  3
                                       CELL THICKNESS (DZ)      =   2.500000     FOR LAYER  4
                                       CELL THICKNESS (DZ)      =   2.500000     FOR LAYER  5
                                       CELL THICKNESS (DZ)      =   2.500000     FOR LAYER  6
                                       CELL THICKNESS (DZ)      =   2.500000     FOR LAYER  7
                                       CELL THICKNESS (DZ)      =   2.500000     FOR LAYER  8
                                       CELL THICKNESS (DZ)      =   2.500000     FOR LAYER  9
                                       CELL THICKNESS (DZ)      =   2.500000     FOR LAYER 10
                                       CELL THICKNESS (DZ)      =   2.500000     FOR LAYER 11
                                       CELL THICKNESS (DZ)      =   2.500000     FOR LAYER 12
                                       CELL THICKNESS (DZ)      =   2.500000     FOR LAYER 13
                                       CELL THICKNESS (DZ)      =   2.500000     FOR LAYER 14
                                       CELL THICKNESS (DZ)      =   2.500000     FOR LAYER 15
                                       CELL THICKNESS (DZ)      =   2.500000     FOR LAYER 16
                                       CELL THICKNESS (DZ)      =   2.500000     FOR LAYER 17
                                       CELL THICKNESS (DZ)      =   2.500000     FOR LAYER 18
                                       CELL THICKNESS (DZ)      =   2.500000     FOR LAYER 19
                                       CELL THICKNESS (DZ)      =   2.500000     FOR LAYER 20
                                       CELL THICKNESS (DZ)      =   2.500000     FOR LAYER 21
                                       CELL THICKNESS (DZ)      =   2.500000     FOR LAYER 22
                                       CELL THICKNESS (DZ)      =   2.500000     FOR LAYER 23
                                       CELL THICKNESS (DZ)      =   2.500000     FOR LAYER 24
                                       CELL THICKNESS (DZ)      =   8.000000     FOR LAYER 25
                                       CELL THICKNESS (DZ)      =   8.000000     FOR LAYER 26
                                       CELL THICKNESS (DZ)      =   8.000000     FOR LAYER 27
                                       CELL THICKNESS (DZ)      =   8.000000     FOR LAYER 28
                                       CELL THICKNESS (DZ)      =   8.000000     FOR LAYER 29
                                       POROSITY                 =  0.3000000     FOR LAYER  1
                                       POROSITY                 =  0.3000000     FOR LAYER  2
                                       POROSITY                 =  0.3000000     FOR LAYER  3
                                       POROSITY                 =  0.3000000     FOR LAYER  4
                                       POROSITY                 =  0.3000000     FOR LAYER  5
                                       POROSITY                 =  0.3000000     FOR LAYER  6
                                       POROSITY                 =  0.3000000     FOR LAYER  7
                                       POROSITY                 =  0.3000000     FOR LAYER  8
                                       POROSITY                 =  0.3000000     FOR LAYER  9
                                       POROSITY                 =  0.3000000     FOR LAYER 10
                                       POROSITY                 =  0.3000000     FOR LAYER 11
                                       POROSITY                 =  0.3000000     FOR LAYER 12
                                       POROSITY                 =  0.3000000     FOR LAYER 13
                                       POROSITY                 =  0.3000000     FOR LAYER 14
                                       POROSITY                 =  0.3000000     FOR LAYER 15
                                       POROSITY                 =  0.3000000     FOR LAYER 16
                                       POROSITY                 =  0.3000000     FOR LAYER 17
                                       POROSITY                 =  0.3000000     FOR LAYER 18
                                       POROSITY                 =  0.3000000     FOR LAYER 19
                                       POROSITY                 =  0.3000000     FOR LAYER 20
                                       POROSITY                 =  0.3000000     FOR LAYER 21
                                       POROSITY                 =  0.3000000     FOR LAYER 22
                                       POROSITY                 =  0.3000000     FOR LAYER 23
                                       POROSITY                 =  0.3000000     FOR LAYER 24
                                       POROSITY                 =  0.3000000     FOR LAYER 25
                                       POROSITY                 =  0.3000000     FOR LAYER 26
                                       POROSITY                 =  0.3000000     FOR LAYER 27
                                       POROSITY                 =  0.3000000     FOR LAYER 28
                                       POROSITY                 =  0.3000000     FOR LAYER 29

                     CONCN. BOUNDARY ARRAY    FOR LAYER  1 READ ON UNIT  31 USING FORMAT: "            (64I10) "
                     ------------------------------------------------------------------------------------------

                     CONCN. BOUNDARY ARRAY    FOR LAYER  2 READ ON UNIT  31 USING FORMAT: "            (64I10) "
                     ------------------------------------------------------------------------------------------

                     CONCN. BOUNDARY ARRAY    FOR LAYER  3 READ ON UNIT  31 USING FORMAT: "            (64I10) "
                     ------------------------------------------------------------------------------------------

                     CONCN. BOUNDARY ARRAY    FOR LAYER  4 READ ON UNIT  31 USING FORMAT: "            (64I10) "
                     ------------------------------------------------------------------------------------------

                     CONCN. BOUNDARY ARRAY    FOR LAYER  5 READ ON UNIT  31 USING FORMAT: "            (64I10) "
                     ------------------------------------------------------------------------------------------

                     CONCN. BOUNDARY ARRAY    FOR LAYER  6 READ ON UNIT  31 USING FORMAT: "            (64I10) "
                     ------------------------------------------------------------------------------------------

                     CONCN. BOUNDARY ARRAY    FOR LAYER  7 READ ON UNIT  31 USING FORMAT: "            (64I10) "
                     ------------------------------------------------------------------------------------------

                     CONCN. BOUNDARY ARRAY    FOR LAYER  8 READ ON UNIT  31 USING FORMAT: "            (64I10) "
                     ------------------------------------------------------------------------------------------

                     CONCN. BOUNDARY ARRAY    FOR LAYER  9 READ ON UNIT  31 USING FORMAT: "            (64I10) "
                     ------------------------------------------------------------------------------------------

                     CONCN. BOUNDARY ARRAY    FOR LAYER 10 READ ON UNIT  31 USING FORMAT: "            (64I10) "
                     ------------------------------------------------------------------------------------------

                     CONCN. BOUNDARY ARRAY    FOR LAYER 11 READ ON UNIT  31 USING FORMAT: "            (64I10) "
                     ------------------------------------------------------------------------------------------

                     CONCN. BOUNDARY ARRAY    FOR LAYER 12 READ ON UNIT  31 USING FORMAT: "            (64I10) "
                     ------------------------------------------------------------------------------------------

                     CONCN. BOUNDARY ARRAY    FOR LAYER 13 READ ON UNIT  31 USING FORMAT: "            (64I10) "
                     ------------------------------------------------------------------------------------------

                     CONCN. BOUNDARY ARRAY    FOR LAYER 14 READ ON UNIT  31 USING FORMAT: "            (64I10) "
                     ------------------------------------------------------------------------------------------

                     CONCN. BOUNDARY ARRAY    FOR LAYER 15 READ ON UNIT  31 USING FORMAT: "            (64I10) "
                     ------------------------------------------------------------------------------------------

                     CONCN. BOUNDARY ARRAY    FOR LAYER 16 READ ON UNIT  31 USING FORMAT: "            (64I10) "
                     ------------------------------------------------------------------------------------------

                     CONCN. BOUNDARY ARRAY    FOR LAYER 17 READ ON UNIT  31 USING FORMAT: "            (64I10) "
                     ------------------------------------------------------------------------------------------

                     CONCN. BOUNDARY ARRAY    FOR LAYER 18 READ ON UNIT  31 USING FORMAT: "            (64I10) "
                     ------------------------------------------------------------------------------------------

                     CONCN. BOUNDARY ARRAY    FOR LAYER 19 READ ON UNIT  31 USING FORMAT: "            (64I10) "
                     ------------------------------------------------------------------------------------------

                     CONCN. BOUNDARY ARRAY    FOR LAYER 20 READ ON UNIT  31 USING FORMAT: "            (64I10) "
                     ------------------------------------------------------------------------------------------

                     CONCN. BOUNDARY ARRAY    FOR LAYER 21 READ ON UNIT  31 USING FORMAT: "            (64I10) "
                     ------------------------------------------------------------------------------------------

                     CONCN. BOUNDARY ARRAY    FOR LAYER 22 READ ON UNIT  31 USING FORMAT: "            (64I10) "
                     ------------------------------------------------------------------------------------------

                     CONCN. BOUNDARY ARRAY    FOR LAYER 23 READ ON UNIT  31 USING FORMAT: "            (64I10) "
                     ------------------------------------------------------------------------------------------

                     CONCN. BOUNDARY ARRAY    FOR LAYER 24 READ ON UNIT  31 USING FORMAT: "            (64I10) "
                     ------------------------------------------------------------------------------------------

                     CONCN. BOUNDARY ARRAY    FOR LAYER 25 READ ON UNIT  31 USING FORMAT: "            (64I10) "
                     ------------------------------------------------------------------------------------------

                     CONCN. BOUNDARY ARRAY    FOR LAYER 26 READ ON UNIT  31 USING FORMAT: "            (64I10) "
                     ------------------------------------------------------------------------------------------

                     CONCN. BOUNDARY ARRAY    FOR LAYER 27 READ ON UNIT  31 USING FORMAT: "            (64I10) "
                     ------------------------------------------------------------------------------------------

                     CONCN. BOUNDARY ARRAY    FOR LAYER 28 READ ON UNIT  31 USING FORMAT: "            (64I10) "
                     ------------------------------------------------------------------------------------------

                     CONCN. BOUNDARY ARRAY    FOR LAYER 29 READ ON UNIT  31 USING FORMAT: "            (64I10) "
                     ------------------------------------------------------------------------------------------

                     INITIAL CONC.: COMP.  01 FOR LAYER  1 READ ON UNIT  31 USING FORMAT: "          (64E15.6) "
                     ------------------------------------------------------------------------------------------

                     INITIAL CONC.: COMP.  01 FOR LAYER  2 READ ON UNIT  31 USING FORMAT: "          (64E15.6) "
                     ------------------------------------------------------------------------------------------

                     INITIAL CONC.: COMP.  01 FOR LAYER  3 READ ON UNIT  31 USING FORMAT: "          (64E15.6) "
                     ------------------------------------------------------------------------------------------

                     INITIAL CONC.: COMP.  01 FOR LAYER  4 READ ON UNIT  31 USING FORMAT: "          (64E15.6) "
                     ------------------------------------------------------------------------------------------

                     INITIAL CONC.: COMP.  01 FOR LAYER  5 READ ON UNIT  31 USING FORMAT: "          (64E15.6) "
                     ------------------------------------------------------------------------------------------

                     INITIAL CONC.: COMP.  01 FOR LAYER  6 READ ON UNIT  31 USING FORMAT: "          (64E15.6) "
                     ------------------------------------------------------------------------------------------

                     INITIAL CONC.: COMP.  01 FOR LAYER  7 READ ON UNIT  31 USING FORMAT: "          (64E15.6) "
                     ------------------------------------------------------------------------------------------

                     INITIAL CONC.: COMP.  01 FOR LAYER  8 READ ON UNIT  31 USING FORMAT: "          (64E15.6) "
                     ------------------------------------------------------------------------------------------

                     INITIAL CONC.: COMP.  01 FOR LAYER  9 READ ON UNIT  31 USING FORMAT: "          (64E15.6) "
                     ------------------------------------------------------------------------------------------

                     INITIAL CONC.: COMP.  01 FOR LAYER 10 READ ON UNIT  31 USING FORMAT: "          (64E15.6) "
                     ------------------------------------------------------------------------------------------

                     INITIAL CONC.: COMP.  01 FOR LAYER 11 READ ON UNIT  31 USING FORMAT: "          (64E15.6) "
                     ------------------------------------------------------------------------------------------

                     INITIAL CONC.: COMP.  01 FOR LAYER 12 READ ON UNIT  31 USING FORMAT: "          (64E15.6) "
                     ------------------------------------------------------------------------------------------

                     INITIAL CONC.: COMP.  01 FOR LAYER 13 READ ON UNIT  31 USING FORMAT: "          (64E15.6) "
                     ------------------------------------------------------------------------------------------

                     INITIAL CONC.: COMP.  01 FOR LAYER 14 READ ON UNIT  31 USING FORMAT: "          (64E15.6) "
                     ------------------------------------------------------------------------------------------

                     INITIAL CONC.: COMP.  01 FOR LAYER 15 READ ON UNIT  31 USING FORMAT: "          (64E15.6) "
                     ------------------------------------------------------------------------------------------

                     INITIAL CONC.: COMP.  01 FOR LAYER 16 READ ON UNIT  31 USING FORMAT: "          (64E15.6) "
                     ------------------------------------------------------------------------------------------

                     INITIAL CONC.: COMP.  01 FOR LAYER 17 READ ON UNIT  31 USING FORMAT: "          (64E15.6) "
                     ------------------------------------------------------------------------------------------

                     INITIAL CONC.: COMP.  01 FOR LAYER 18 READ ON UNIT  31 USING FORMAT: "          (64E15.6) "
                     ------------------------------------------------------------------------------------------

                     INITIAL CONC.: COMP.  01 FOR LAYER 19 READ ON UNIT  31 USING FORMAT: "          (64E15.6) "
                     ------------------------------------------------------------------------------------------

                     INITIAL CONC.: COMP.  01 FOR LAYER 20 READ ON UNIT  31 USING FORMAT: "          (64E15.6) "
                     ------------------------------------------------------------------------------------------

                     INITIAL CONC.: COMP.  01 FOR LAYER 21 READ ON UNIT  31 USING FORMAT: "          (64E15.6) "
                     ------------------------------------------------------------------------------------------

                     INITIAL CONC.: COMP.  01 FOR LAYER 22 READ ON UNIT  31 USING FORMAT: "          (64E15.6) "
                     ------------------------------------------------------------------------------------------

                     INITIAL CONC.: COMP.  01 FOR LAYER 23 READ ON UNIT  31 USING FORMAT: "          (64E15.6) "
                     ------------------------------------------------------------------------------------------

                     INITIAL CONC.: COMP.  01 FOR LAYER 24 READ ON UNIT  31 USING FORMAT: "          (64E15.6) "
                     ------------------------------------------------------------------------------------------

                     INITIAL CONC.: COMP.  01 FOR LAYER 25 READ ON UNIT  31 USING FORMAT: "          (64E15.6) "
                     ------------------------------------------------------------------------------------------

                     INITIAL CONC.: COMP.  01 FOR LAYER 26 READ ON UNIT  31 USING FORMAT: "          (64E15.6) "
                     ------------------------------------------------------------------------------------------

                     INITIAL CONC.: COMP.  01 FOR LAYER 27 READ ON UNIT  31 USING FORMAT: "          (64E15.6) "
                     ------------------------------------------------------------------------------------------

                     INITIAL CONC.: COMP.  01 FOR LAYER 28 READ ON UNIT  31 USING FORMAT: "          (64E15.6) "
                     ------------------------------------------------------------------------------------------

                     INITIAL CONC.: COMP.  01 FOR LAYER 29 READ ON UNIT  31 USING FORMAT: "          (64E15.6) "
                     ------------------------------------------------------------------------------------------

                     INITIAL CONC.: COMP.  02 FOR LAYER  1 READ ON UNIT  31 USING FORMAT: "          (64E15.6) "
                     ------------------------------------------------------------------------------------------

                     INITIAL CONC.: COMP.  02 FOR LAYER  2 READ ON UNIT  31 USING FORMAT: "          (64E15.6) "
                     ------------------------------------------------------------------------------------------

                     INITIAL CONC.: COMP.  02 FOR LAYER  3 READ ON UNIT  31 USING FORMAT: "          (64E15.6) "
                     ------------------------------------------------------------------------------------------

                     INITIAL CONC.: COMP.  02 FOR LAYER  4 READ ON UNIT  31 USING FORMAT: "          (64E15.6) "
                     ------------------------------------------------------------------------------------------

                     INITIAL CONC.: COMP.  02 FOR LAYER  5 READ ON UNIT  31 USING FORMAT: "          (64E15.6) "
                     ------------------------------------------------------------------------------------------

                     INITIAL CONC.: COMP.  02 FOR LAYER  6 READ ON UNIT  31 USING FORMAT: "          (64E15.6) "
                     ------------------------------------------------------------------------------------------

                     INITIAL CONC.: COMP.  02 FOR LAYER  7 READ ON UNIT  31 USING FORMAT: "          (64E15.6) "
                     ------------------------------------------------------------------------------------------

                     INITIAL CONC.: COMP.  02 FOR LAYER  8 READ ON UNIT  31 USING FORMAT: "          (64E15.6) "
                     ------------------------------------------------------------------------------------------

                     INITIAL CONC.: COMP.  02 FOR LAYER  9 READ ON UNIT  31 USING FORMAT: "          (64E15.6) "
                     ------------------------------------------------------------------------------------------

                     INITIAL CONC.: COMP.  02 FOR LAYER 10 READ ON UNIT  31 USING FORMAT: "          (64E15.6) "
                     ------------------------------------------------------------------------------------------

                     INITIAL CONC.: COMP.  02 FOR LAYER 11 READ ON UNIT  31 USING FORMAT: "          (64E15.6) "
                     ------------------------------------------------------------------------------------------

                     INITIAL CONC.: COMP.  02 FOR LAYER 12 READ ON UNIT  31 USING FORMAT: "          (64E15.6) "
                     ------------------------------------------------------------------------------------------

                     INITIAL CONC.: COMP.  02 FOR LAYER 13 READ ON UNIT  31 USING FORMAT: "          (64E15.6) "
                     ------------------------------------------------------------------------------------------

                     INITIAL CONC.: COMP.  02 FOR LAYER 14 READ ON UNIT  31 USING FORMAT: "          (64E15.6) "
                     ------------------------------------------------------------------------------------------

                     INITIAL CONC.: COMP.  02 FOR LAYER 15 READ ON UNIT  31 USING FORMAT: "          (64E15.6) "
                     ------------------------------------------------------------------------------------------

                     INITIAL CONC.: COMP.  02 FOR LAYER 16 READ ON UNIT  31 USING FORMAT: "          (64E15.6) "
                     ------------------------------------------------------------------------------------------

                     INITIAL CONC.: COMP.  02 FOR LAYER 17 READ ON UNIT  31 USING FORMAT: "          (64E15.6) "
                     ------------------------------------------------------------------------------------------

                     INITIAL CONC.: COMP.  02 FOR LAYER 18 READ ON UNIT  31 USING FORMAT: "          (64E15.6) "
                     ------------------------------------------------------------------------------------------

                     INITIAL CONC.: COMP.  02 FOR LAYER 19 READ ON UNIT  31 USING FORMAT: "          (64E15.6) "
                     ------------------------------------------------------------------------------------------

                     INITIAL CONC.: COMP.  02 FOR LAYER 20 READ ON UNIT  31 USING FORMAT: "          (64E15.6) "
                     ------------------------------------------------------------------------------------------

                     INITIAL CONC.: COMP.  02 FOR LAYER 21 READ ON UNIT  31 USING FORMAT: "          (64E15.6) "
                     ------------------------------------------------------------------------------------------

                     INITIAL CONC.: COMP.  02 FOR LAYER 22 READ ON UNIT  31 USING FORMAT: "          (64E15.6) "
                     ------------------------------------------------------------------------------------------

                     INITIAL CONC.: COMP.  02 FOR LAYER 23 READ ON UNIT  31 USING FORMAT: "          (64E15.6) "
                     ------------------------------------------------------------------------------------------

                     INITIAL CONC.: COMP.  02 FOR LAYER 24 READ ON UNIT  31 USING FORMAT: "          (64E15.6) "
                     ------------------------------------------------------------------------------------------

                     INITIAL CONC.: COMP.  02 FOR LAYER 25 READ ON UNIT  31 USING FORMAT: "          (64E15.6) "
                     ------------------------------------------------------------------------------------------

                     INITIAL CONC.: COMP.  02 FOR LAYER 26 READ ON UNIT  31 USING FORMAT: "          (64E15.6) "
                     ------------------------------------------------------------------------------------------

                     INITIAL CONC.: COMP.  02 FOR LAYER 27 READ ON UNIT  31 USING FORMAT: "          (64E15.6) "
                     ------------------------------------------------------------------------------------------

                     INITIAL CONC.: COMP.  02 FOR LAYER 28 READ ON UNIT  31 USING FORMAT: "          (64E15.6) "
                     ------------------------------------------------------------------------------------------

                     INITIAL CONC.: COMP.  02 FOR LAYER 29 READ ON UNIT  31 USING FORMAT: "          (64E15.6) "
                     ------------------------------------------------------------------------------------------

 VALUE INDICATING INACTIVE CONCENTRATION CELLS =   0.1000000E+31
 MINIMUM SATURATED THICKNESS [THKMIN] ALLOWED =  0.0100000 OF TOTAL CELL THICKNESS


 OUTPUT CONTROL OPTIONS
 ----------------------

 DO NOT PRINT CELL CONCENTRATION
 DO NOT PRINT PARTICLE NUMBER IN EACH CELL
 DO NOT PRINT RETARDATION FACTOR
 DO NOT PRINT DISPERSION COEFFICIENT
 SAVE DISSOLVED PHASE CONCENTRATIONS IN UNFORMATTED FILES [MT3Dnnn.UCN]
  FOR EACH SPECIES ON UNITS 201 AND ABOVE

 NUMBER OF TIMES AT WHICH SIMULATION RESULTS ARE SAVED =   15
 TOTAL ELAPSED TIMES AT WHICH SIMULATION RESULTS ARE SAVED: 
    0.0000       782.14       1564.3       2346.4       3128.6       3910.7       4692.9       5475.0    
    6257.1       7039.3       7821.4       8603.6       9385.7       10168.       10950.    

 NUMBER OF OBSERVATION POINTS =    0

 SAVE ONE-LINE SUMMARY OF MASS BUDGETS IN FILES [MT3Dnnn.MAS]
  FOR EACH SPECIES ON UNITS 601 AND ABOVE, EVERY  1 TRANSPORT STEPS

 MAXIMUM LENGTH ALONG THE X (J) AXIS =   1400.000    
 MAXIMUM LENGTH ALONG THE Y (I) AXIS =   2600.000    
 MAXIMUM LENGTH ALONG THE Z (K) AXIS =   102.5000    
 FMI1 -- FLOW MODEL INTERFACE PACKAGE, VERSION 1, MAY 2016, INPUT READ FROM UNIT 10
 FLOW MODEL IS STEADY-STATE
 FLOW MODEL CONTAINS CONSTANT-HEAD CELLS


 ADV1 -- ADVECTION PACKAGE, VERSION 1, MAY 2016, INPUT READ FROM UNIT 32
 ADVECTION IS SOLVED WITH THE HYBRID [MOC]/[MMOC] SCHEME
 COURANT NUMBER ALLOWED IN SOLVING THE ADVECTION TERM = 0.750    
 MAXIMUM NUMBER OF MOVING PARTICLES ALLOWED = 8000000


 ADVECTION SOLUTION OPTIONS
 --------------------------

 ADVECTION IS SOLVED WITH THE HYBRID [MOC]/[MMOC] SCHEME
 COURANT NUMBER ALLOWED IN SOLVING THE ADVECTION TERM = 0.750    
 MAXIMUM NUMBER OF MOVING PARTICLES ALLOWED = 8000000
 METHOD FOR PARTICLE TRACKING IS [MIXED ORDER]
 CONCENTRATION WEIGHTING FACTOR [WD] =     0.500
 THE CONCENTRATION GRADIENT CONSIDERED NEGLIGIBLE [DCEPS] =  0.1000000E-04
 INITIAL PARTICLES ARE PLACED ON  2 VERTICAL PLANE(S) WITHIN CELL BLOCK
 PARTICLE NUMBER PER CELL IF DCCELL =< DCEPS =   10
 PARTICLE NUMBER PER CELL IF DCCELL  > DCEPS =   40
 MINIMUM PARTICLE NUMBER ALLOWED PER CELL    =    5
 MAXIMUM PARTICLE NUMBER ALLOWED PER CELL    =   80
 MULTIPLIER OF PARTICLE NUMBER AT SOURCE     =  1.00    
 SCHEME FOR CONCENTRATION INTERPOLATION IS [LINEAR]
 PARTICLES FOR APPROXIMATING A SINK CELL IN THE [MMOC] SCHEME
 ARE PLACED RANDOMLY WITHIN CELL BLOCK
 NUMBER OF PARTICLES USED TO APPROXIMATE A SINK CELL IN THE [MMOC] SCHEME =  15
 CRITICAL CONCENTRATION GRADIENT USED IN THE "HMOC" SCHEME [DCHMOC] = 0.1000E-03
 THE "MOC"  SOLUTION IS USED WHEN DCCELL  > DCHMOC
 THE "MMOC" SOLUTION IS USED WHEN DCCELL =< DCHMOC

 DSP1 -- DISPERSION PACKAGE, VERSION 1, MAY 2016, INPUT READ FROM UNIT 33


 DISPERSION INPUT PARAMETERS
 ---------------------------

                                       LONG. DISPERSIVITY (AL)  =  0.1000000     FOR LAYER  1
                                       LONG. DISPERSIVITY (AL)  =  0.1000000     FOR LAYER  2
                                       LONG. DISPERSIVITY (AL)  =  0.1000000     FOR LAYER  3
                                       LONG. DISPERSIVITY (AL)  =  0.1000000     FOR LAYER  4
                                       LONG. DISPERSIVITY (AL)  =  0.1000000     FOR LAYER  5
                                       LONG. DISPERSIVITY (AL)  =  0.1000000     FOR LAYER  6
                                       LONG. DISPERSIVITY (AL)  =  0.1000000     FOR LAYER  7
                                       LONG. DISPERSIVITY (AL)  =  0.1000000     FOR LAYER  8
                                       LONG. DISPERSIVITY (AL)  =  0.1000000     FOR LAYER  9
                                       LONG. DISPERSIVITY (AL)  =  0.1000000     FOR LAYER 10
                                       LONG. DISPERSIVITY (AL)  =  0.1000000     FOR LAYER 11
                                       LONG. DISPERSIVITY (AL)  =  0.1000000     FOR LAYER 12
                                       LONG. DISPERSIVITY (AL)  =  0.1000000     FOR LAYER 13
                                       LONG. DISPERSIVITY (AL)  =  0.1000000     FOR LAYER 14
                                       LONG. DISPERSIVITY (AL)  =  0.1000000     FOR LAYER 15
                                       LONG. DISPERSIVITY (AL)  =  0.1000000     FOR LAYER 16
                                       LONG. DISPERSIVITY (AL)  =  0.1000000     FOR LAYER 17
                                       LONG. DISPERSIVITY (AL)  =  0.1000000     FOR LAYER 18
                                       LONG. DISPERSIVITY (AL)  =  0.1000000     FOR LAYER 19
                                       LONG. DISPERSIVITY (AL)  =  0.1000000     FOR LAYER 20
                                       LONG. DISPERSIVITY (AL)  =  0.1000000     FOR LAYER 21
                                       LONG. DISPERSIVITY (AL)  =  0.1000000     FOR LAYER 22
                                       LONG. DISPERSIVITY (AL)  =  0.1000000     FOR LAYER 23
                                       LONG. DISPERSIVITY (AL)  =  0.1000000     FOR LAYER 24
                                       LONG. DISPERSIVITY (AL)  =  0.1000000     FOR LAYER 25
                                       LONG. DISPERSIVITY (AL)  =  0.1000000     FOR LAYER 26
                                       LONG. DISPERSIVITY (AL)  =  0.1000000     FOR LAYER 27
                                       LONG. DISPERSIVITY (AL)  =  0.1000000     FOR LAYER 28
                                       LONG. DISPERSIVITY (AL)  =  0.1000000     FOR LAYER 29
                                       H. TRANS./LONG. DISP.    =  0.1000000    
                                       V. TRANS./LONG. DISP.    =  0.1000000E-01
                                       DIFFUSION COEFFICIENT    =   0.000000    

 SSM1 -- SINK & SOURCE MIXING PACKAGE, VERSION 1, MAY 2016, INPUT READ FROM UNIT 34
 HEADER LINE OF THE SSM PACKAGE INPUT FILE:
  T F T F F F F F F F F F F F F F                                        
 MAJOR STRESS COMPONENTS PRESENT IN THE FLOW MODEL:
  o WELL [WEL]
  o RECHARGE [RCH]
 MAXIMUM NUMBER OF POINT SINKS/SOURCES =    7633

 RCT1 -- CHEMICAL REACTION PACKAGE, VERSION 1, MAY 2016, INPUT READ FROM UNIT 36
 TYPE OF SORPTION SELECTED IS [LINEAR]
 NO FIRST-ORDER RATE REACTION IS SIMULATED
 REACTION COEFFICIENTS ASSIGNED CELL-BY-CELL
 INITIAL SORBED/IMMOBILE PHASE CONCENTRATION ASSIGNED BY DEFAULT
 SAVE SORBED/IMMOBILE PHASE CONCENTRATIONS IN UNFORMATTED FILES [MT3DnnnS.UCN]
  FOR EACH SPECIES ON UNITS 301 AND ABOVE, IF SORPTION/MASS TRANSFER SIMULATED


 SORPTION AND 1ST/0TH ORDER REACTION PARAMETERS
 ----------------------------------------------

                                       BULK DENSITY (RHOB)      =   1800.000     FOR LAYER  1
                                       BULK DENSITY (RHOB)      =   1800.000     FOR LAYER  2
                                       BULK DENSITY (RHOB)      =   1800.000     FOR LAYER  3
                                       BULK DENSITY (RHOB)      =   1800.000     FOR LAYER  4
                                       BULK DENSITY (RHOB)      =   1800.000     FOR LAYER  5
                                       BULK DENSITY (RHOB)      =   1800.000     FOR LAYER  6
                                       BULK DENSITY (RHOB)      =   1800.000     FOR LAYER  7
                                       BULK DENSITY (RHOB)      =   1800.000     FOR LAYER  8
                                       BULK DENSITY (RHOB)      =   1800.000     FOR LAYER  9
                                       BULK DENSITY (RHOB)      =   1800.000     FOR LAYER 10
                                       BULK DENSITY (RHOB)      =   1800.000     FOR LAYER 11
                                       BULK DENSITY (RHOB)      =   1800.000     FOR LAYER 12
                                       BULK DENSITY (RHOB)      =   1800.000     FOR LAYER 13
                                       BULK DENSITY (RHOB)      =   1800.000     FOR LAYER 14
                                       BULK DENSITY (RHOB)      =   1800.000     FOR LAYER 15
                                       BULK DENSITY (RHOB)      =   1800.000     FOR LAYER 16
                                       BULK DENSITY (RHOB)      =   1800.000     FOR LAYER 17
                                       BULK DENSITY (RHOB)      =   1800.000     FOR LAYER 18
                                       BULK DENSITY (RHOB)      =   1800.000     FOR LAYER 19
                                       BULK DENSITY (RHOB)      =   1800.000     FOR LAYER 20
                                       BULK DENSITY (RHOB)      =   1800.000     FOR LAYER 21
                                       BULK DENSITY (RHOB)      =   1800.000     FOR LAYER 22
                                       BULK DENSITY (RHOB)      =   1800.000     FOR LAYER 23
                                       BULK DENSITY (RHOB)      =   1800.000     FOR LAYER 24
                                       BULK DENSITY (RHOB)      =   1800.000     FOR LAYER 25
                                       BULK DENSITY (RHOB)      =   1800.000     FOR LAYER 26
                                       BULK DENSITY (RHOB)      =   1800.000     FOR LAYER 27
                                       BULK DENSITY (RHOB)      =   1800.000     FOR LAYER 28
                                       BULK DENSITY (RHOB)      =   1800.000     FOR LAYER 29
                                       1ST SORP. COEF. COMP. 01 =  0.1000000E-08 FOR LAYER  1
                                       1ST SORP. COEF. COMP. 01 =  0.1000000E-08 FOR LAYER  2
                                       1ST SORP. COEF. COMP. 01 =  0.1000000E-08 FOR LAYER  3
                                       1ST SORP. COEF. COMP. 01 =  0.1000000E-08 FOR LAYER  4
                                       1ST SORP. COEF. COMP. 01 =  0.1000000E-08 FOR LAYER  5
                                       1ST SORP. COEF. COMP. 01 =  0.1000000E-08 FOR LAYER  6
                                       1ST SORP. COEF. COMP. 01 =  0.1000000E-08 FOR LAYER  7
                                       1ST SORP. COEF. COMP. 01 =  0.1000000E-08 FOR LAYER  8
                                       1ST SORP. COEF. COMP. 01 =  0.1000000E-08 FOR LAYER  9
                                       1ST SORP. COEF. COMP. 01 =  0.1000000E-08 FOR LAYER 10
                                       1ST SORP. COEF. COMP. 01 =  0.1000000E-08 FOR LAYER 11
                                       1ST SORP. COEF. COMP. 01 =  0.1000000E-08 FOR LAYER 12
                                       1ST SORP. COEF. COMP. 01 =  0.1000000E-08 FOR LAYER 13
                                       1ST SORP. COEF. COMP. 01 =  0.1000000E-08 FOR LAYER 14
                                       1ST SORP. COEF. COMP. 01 =  0.1000000E-08 FOR LAYER 15
                                       1ST SORP. COEF. COMP. 01 =  0.1000000E-08 FOR LAYER 16
                                       1ST SORP. COEF. COMP. 01 =  0.1000000E-08 FOR LAYER 17
                                       1ST SORP. COEF. COMP. 01 =  0.1000000E-08 FOR LAYER 18
                                       1ST SORP. COEF. COMP. 01 =  0.1000000E-08 FOR LAYER 19
                                       1ST SORP. COEF. COMP. 01 =  0.1000000E-08 FOR LAYER 20
                                       1ST SORP. COEF. COMP. 01 =  0.1000000E-08 FOR LAYER 21
                                       1ST SORP. COEF. COMP. 01 =  0.1000000E-08 FOR LAYER 22
                                       1ST SORP. COEF. COMP. 01 =  0.1000000E-08 FOR LAYER 23
                                       1ST SORP. COEF. COMP. 01 =  0.1000000E-08 FOR LAYER 24
                                       1ST SORP. COEF. COMP. 01 =  0.1000000E-08 FOR LAYER 25
                                       1ST SORP. COEF. COMP. 01 =  0.1000000E-08 FOR LAYER 26
                                       1ST SORP. COEF. COMP. 01 =  0.1000000E-08 FOR LAYER 27
                                       1ST SORP. COEF. COMP. 01 =  0.1000000E-08 FOR LAYER 28
                                       1ST SORP. COEF. COMP. 01 =  0.1000000E-08 FOR LAYER 29
                                       1ST SORP. COEF. COMP. 02 =   111.2100     FOR LAYER  1
                                       1ST SORP. COEF. COMP. 02 =   111.2100     FOR LAYER  2
                                       1ST SORP. COEF. COMP. 02 =   111.2100     FOR LAYER  3
                                       1ST SORP. COEF. COMP. 02 =   111.2100     FOR LAYER  4
                                       1ST SORP. COEF. COMP. 02 =   111.2100     FOR LAYER  5
                                       1ST SORP. COEF. COMP. 02 =   111.2100     FOR LAYER  6
                                       1ST SORP. COEF. COMP. 02 =   111.2100     FOR LAYER  7
                                       1ST SORP. COEF. COMP. 02 =   111.2100     FOR LAYER  8
                                       1ST SORP. COEF. COMP. 02 =   111.2100     FOR LAYER  9
                                       1ST SORP. COEF. COMP. 02 =   111.2100     FOR LAYER 10
                                       1ST SORP. COEF. COMP. 02 =   111.2100     FOR LAYER 11
                                       1ST SORP. COEF. COMP. 02 =   111.2100     FOR LAYER 12
                                       1ST SORP. COEF. COMP. 02 =   111.2100     FOR LAYER 13
                                       1ST SORP. COEF. COMP. 02 =   111.2100     FOR LAYER 14
                                       1ST SORP. COEF. COMP. 02 =   111.2100     FOR LAYER 15
                                       1ST SORP. COEF. COMP. 02 =   111.2100     FOR LAYER 16
                                       1ST SORP. COEF. COMP. 02 =   111.2100     FOR LAYER 17
                                       1ST SORP. COEF. COMP. 02 =   111.2100     FOR LAYER 18
                                       1ST SORP. COEF. COMP. 02 =   111.2100     FOR LAYER 19
                                       1ST SORP. COEF. COMP. 02 =   111.2100     FOR LAYER 20
                                       1ST SORP. COEF. COMP. 02 =   111.2100     FOR LAYER 21
                                       1ST SORP. COEF. COMP. 02 =   111.2100     FOR LAYER 22
                                       1ST SORP. COEF. COMP. 02 =   111.2100     FOR LAYER 23
                                       1ST SORP. COEF. COMP. 02 =   111.2100     FOR LAYER 24
                                       1ST SORP. COEF. COMP. 02 =   111.2100     FOR LAYER 25
                                       1ST SORP. COEF. COMP. 02 =   111.2100     FOR LAYER 26
                                       1ST SORP. COEF. COMP. 02 =   111.2100     FOR LAYER 27
                                       1ST SORP. COEF. COMP. 02 =   111.2100     FOR LAYER 28
                                       1ST SORP. COEF. COMP. 02 =   111.2100     FOR LAYER 29
                                       2ND SORP. COEF. COMP. 01 =   0.000000     FOR LAYER  1
                                       2ND SORP. COEF. COMP. 01 =   0.000000     FOR LAYER  2
                                       2ND SORP. COEF. COMP. 01 =   0.000000     FOR LAYER  3
                                       2ND SORP. COEF. COMP. 01 =   0.000000     FOR LAYER  4
                                       2ND SORP. COEF. COMP. 01 =   0.000000     FOR LAYER  5
                                       2ND SORP. COEF. COMP. 01 =   0.000000     FOR LAYER  6
                                       2ND SORP. COEF. COMP. 01 =   0.000000     FOR LAYER  7
                                       2ND SORP. COEF. COMP. 01 =   0.000000     FOR LAYER  8
                                       2ND SORP. COEF. COMP. 01 =   0.000000     FOR LAYER  9
                                       2ND SORP. COEF. COMP. 01 =   0.000000     FOR LAYER 10
                                       2ND SORP. COEF. COMP. 01 =   0.000000     FOR LAYER 11
                                       2ND SORP. COEF. COMP. 01 =   0.000000     FOR LAYER 12
                                       2ND SORP. COEF. COMP. 01 =   0.000000     FOR LAYER 13
                                       2ND SORP. COEF. COMP. 01 =   0.000000     FOR LAYER 14
                                       2ND SORP. COEF. COMP. 01 =   0.000000     FOR LAYER 15
                                       2ND SORP. COEF. COMP. 01 =   0.000000     FOR LAYER 16
                                       2ND SORP. COEF. COMP. 01 =   0.000000     FOR LAYER 17
                                       2ND SORP. COEF. COMP. 01 =   0.000000     FOR LAYER 18
                                       2ND SORP. COEF. COMP. 01 =   0.000000     FOR LAYER 19
                                       2ND SORP. COEF. COMP. 01 =   0.000000     FOR LAYER 20
                                       2ND SORP. COEF. COMP. 01 =   0.000000     FOR LAYER 21
                                       2ND SORP. COEF. COMP. 01 =   0.000000     FOR LAYER 22
                                       2ND SORP. COEF. COMP. 01 =   0.000000     FOR LAYER 23
                                       2ND SORP. COEF. COMP. 01 =   0.000000     FOR LAYER 24
                                       2ND SORP. COEF. COMP. 01 =   0.000000     FOR LAYER 25
                                       2ND SORP. COEF. COMP. 01 =   0.000000     FOR LAYER 26
                                       2ND SORP. COEF. COMP. 01 =   0.000000     FOR LAYER 27
                                       2ND SORP. COEF. COMP. 01 =   0.000000     FOR LAYER 28
                                       2ND SORP. COEF. COMP. 01 =   0.000000     FOR LAYER 29
                                       2ND SORP. COEF. COMP. 02 =   0.000000     FOR LAYER  1
                                       2ND SORP. COEF. COMP. 02 =   0.000000     FOR LAYER  2
                                       2ND SORP. COEF. COMP. 02 =   0.000000     FOR LAYER  3
                                       2ND SORP. COEF. COMP. 02 =   0.000000     FOR LAYER  4
                                       2ND SORP. COEF. COMP. 02 =   0.000000     FOR LAYER  5
                                       2ND SORP. COEF. COMP. 02 =   0.000000     FOR LAYER  6
                                       2ND SORP. COEF. COMP. 02 =   0.000000     FOR LAYER  7
                                       2ND SORP. COEF. COMP. 02 =   0.000000     FOR LAYER  8
                                       2ND SORP. COEF. COMP. 02 =   0.000000     FOR LAYER  9
                                       2ND SORP. COEF. COMP. 02 =   0.000000     FOR LAYER 10
                                       2ND SORP. COEF. COMP. 02 =   0.000000     FOR LAYER 11
                                       2ND SORP. COEF. COMP. 02 =   0.000000     FOR LAYER 12
                                       2ND SORP. COEF. COMP. 02 =   0.000000     FOR LAYER 13
                                       2ND SORP. COEF. COMP. 02 =   0.000000     FOR LAYER 14
                                       2ND SORP. COEF. COMP. 02 =   0.000000     FOR LAYER 15
                                       2ND SORP. COEF. COMP. 02 =   0.000000     FOR LAYER 16
                                       2ND SORP. COEF. COMP. 02 =   0.000000     FOR LAYER 17
                                       2ND SORP. COEF. COMP. 02 =   0.000000     FOR LAYER 18
                                       2ND SORP. COEF. COMP. 02 =   0.000000     FOR LAYER 19
                                       2ND SORP. COEF. COMP. 02 =   0.000000     FOR LAYER 20
                                       2ND SORP. COEF. COMP. 02 =   0.000000     FOR LAYER 21
                                       2ND SORP. COEF. COMP. 02 =   0.000000     FOR LAYER 22
                                       2ND SORP. COEF. COMP. 02 =   0.000000     FOR LAYER 23
                                       2ND SORP. COEF. COMP. 02 =   0.000000     FOR LAYER 24
                                       2ND SORP. COEF. COMP. 02 =   0.000000     FOR LAYER 25
                                       2ND SORP. COEF. COMP. 02 =   0.000000     FOR LAYER 26
                                       2ND SORP. COEF. COMP. 02 =   0.000000     FOR LAYER 27
                                       2ND SORP. COEF. COMP. 02 =   0.000000     FOR LAYER 28
                                       2ND SORP. COEF. COMP. 02 =   0.000000     FOR LAYER 29

 GCG1 -- GENERALIZED CONJUGATE GRADIENT SOLVER PACKAGE, VERSION 1, OCTOBER 2010 INPUT READ FROM UNIT 35
 MAXIMUM OF    1 OUTER ITERATIONS
        AND   50 INNER ITERATIONS ALLOWED FOR CLOSURE
 THE PRECONDITIONING TYPE SELECTED IS MODIFIED INCOMPLETE CHOLESKY (MIC).
 DISPERSION CROSS TERMS LUMPED INTO RIGHT-HAND-SIDE



                                               SOLUTION BY THE GENERALIZED CONJUGATE GRADIENT METHOD
                                               -----------------------------------------------------
                                     MAXIMUM OUTER ITERATIONS ALLOWED FOR CLOSURE =        1
                                     MAXIMUM INNER ITERATIONS ALLOWED FOR CLOSURE =       50
                                                    PRECONDITIONING TYPE SELECTED =    3
                                                           ACCELERATION PARAMETER =     1.0000    
                                       CONCENTRATION CHANGE CRITERION FOR CLOSURE =    0.10000E-04
                                       GCG CONCENTRATION CHANGE PRINTOUT INTERVAL =      999


                                   ++++++++++++++++++++++++++++++++++++++++++++++++++++++++++++++
                                                       STRESS PERIOD NO.  001
                                   ++++++++++++++++++++++++++++++++++++++++++++++++++++++++++++++


 LENGTH OF CURRENT STRESS PERIOD =   10950.00    
 NUMBER OF TIME STEPS FOR CURRENT STRESS PERIOD =    1
 TIME STEP MULTIPLIER USED IN FLOW SOLUTION =   1.000000    

 ***Type of Transport Simulation is TRANSIENT

 USER-SPECIFIED TRANSPORT STEPSIZE =   0.000000    D   
 MAXIMUM NUMBER OF TRANSPORT STEPS ALLOWED  IN ONE FLOW TIME STEP =     50000
 MULTIPLIER FOR SUCCESSIVE TRANSPORT STEPS  [USED IN IMPLICIT SCHEMES] =     1.000
 MAXIMUM TRANSPORT STEP SIZE  [USED IN IMPLICIT SCHEMES] =   0.000000    D   

 CONCENTRATION OF RECHARGE FLUXES WILL BE READ IN STRESS PERIOD  1
                                       RECH. CONC. COMP.  01    =   0.000000    
                                       RECH. CONC. COMP.  02    =   0.000000    

 NO. OF POINT SINKS/SOURCES OF SPECIFIED CONCENTRATIONS =    0 IN STRESS PERIOD  1


                                          ================================================
                                                         TIME STEP NO.  001
                                          ================================================

 FROM TIME =   0.0000     TO    10950.    


                    "THKSAT          " FLOW TERMS FOR TIME STEP  1, STRESS PERIOD  1 READ UNFORMATTED ON UNIT 10
                    --------------------------------------------------------------------------------------------

                    "QXX             " FLOW TERMS FOR TIME STEP  1, STRESS PERIOD  1 READ UNFORMATTED ON UNIT 10
                    --------------------------------------------------------------------------------------------

                    "QYY             " FLOW TERMS FOR TIME STEP  1, STRESS PERIOD  1 READ UNFORMATTED ON UNIT 10
                    --------------------------------------------------------------------------------------------

                    "QZZ             " FLOW TERMS FOR TIME STEP  1, STRESS PERIOD  1 READ UNFORMATTED ON UNIT 10
                    --------------------------------------------------------------------------------------------

 MAXIMUM STEPSIZE DURING WHICH ANY PARTICLE CANNOT MOVE MORE THAN ONE CELL
 =  27.53    (WHEN MIN. R.F.=1)  AT K=   9, I=  39, J=  26

 MAXIMUM STEPSIZE WHICH MEETS STABILITY CRITERION OF THE ADVECTION TERM
 (FOR PURE FINITE-DIFFERENCE OPTION, MIXELM=0) 
 =  9.388    (WHEN MIN. R.F.=1)  AT K=  10, I=  39, J=  26

                    "CNH             " FLOW TERMS FOR TIME STEP  1, STRESS PERIOD  1 READ UNFORMATTED ON UNIT 10
                    --------------------------------------------------------------------------------------------

                    "WEL             " FLOW TERMS FOR TIME STEP  1, STRESS PERIOD  1 READ UNFORMATTED ON UNIT 10
                    --------------------------------------------------------------------------------------------

                    "RCH             " FLOW TERMS FOR TIME STEP  1, STRESS PERIOD  1 READ UNFORMATTED ON UNIT 10
                    --------------------------------------------------------------------------------------------


 TOTAL NUMBER OF POINT SOURCES/SINKS PRESENT IN THE FLOW MODEL =   721

 MAXIMUM STEPSIZE WHICH MEETS STABILITY CRITERION OF THE SINK & SOURCE TERM
 =  73.53    (WHEN MIN. R.F.=1)  AT K=  29, I=  86, J=  62

 MAXIMUM STEPSIZE WHICH MEETS STABILITY CRITERION OF THE DISPERSION TERM
 =  291.0    (WHEN MIN. R.F.=1)  AT K=   9, I=  35, J=  31



 >>>>>>>>>>>>>>>>>>>>>>>>>>>>>>>>>>>>>>>>>>>>>>>>>>>>>>>FOR COMPONENT NO. 01<<<<<<<<<<<<<<<<<<<<<<<<<<<<<<<<<<<<<<<<<<<<<<<<<<<<<<<


                                            -------------------------------------------
                                                      TRANSPORT STEP NO.    1
                                            -------------------------------------------

 TOTAL ELAPSED TIME SINCE BEGINNING OF SIMULATION =   0.000000    D   
 .....................................................................

 TOTAL PARTICLES USED IN THE CURRENT STEP =     18240
 PARTICLES ADDED AT BEGINNING OF THE STEP =     18240
 PARTICLES REMOVED AT END OF LAST STEP    =         0

                     CUMULATIVE MASS BUDGETS AT END OF TRANSPORT STEP    1, TIME STEP    1, STRESS PERIOD    1
                     -----------------------------------------------------------------------------------------

                                                             IN                           OUT
                                                      ----------------             ----------------
                               CONSTANT CONCENTRATION:    0.000000                    0.000000    
                                        CONSTANT HEAD:    0.000000                    0.000000    
                                                WELLS:    0.000000                    0.000000    
                                             RECHARGE:    0.000000                    0.000000    
                               1ST/0TH ORDER REACTION:    0.000000                    0.000000    
                               MASS STOR (FLOW MODEL):    0.000000                    0.000000    
                                MASS STORAGE (SOLUTE):    0.000000                    0.000000    
                                MASS STORAGE (SORBED):    0.000000                    0.000000    
                            ---------------------------------------------------------------------------
                                              [TOTAL]:    0.000000     KG             0.000000     KG  

                                                          NET (IN - OUT):    0.000000    
                                                   DISCREPANCY (PERCENT):    0.000000    



 >>>>>>>>>>>>>>>>>>>>>>>>>>>>>>>>>>>>>>>>>>>>>>>>>>>>>>>FOR COMPONENT NO. 02<<<<<<<<<<<<<<<<<<<<<<<<<<<<<<<<<<<<<<<<<<<<<<<<<<<<<<<


                                            -------------------------------------------
                                                      TRANSPORT STEP NO.    1
                                            -------------------------------------------

 TOTAL ELAPSED TIME SINCE BEGINNING OF SIMULATION =   0.000000    D   
 .....................................................................

 TOTAL PARTICLES USED IN THE CURRENT STEP =    137184
 PARTICLES ADDED AT BEGINNING OF THE STEP =    137184
 PARTICLES REMOVED AT END OF LAST STEP    =         0

                     CUMULATIVE MASS BUDGETS AT END OF TRANSPORT STEP    1, TIME STEP    1, STRESS PERIOD    1
                     -----------------------------------------------------------------------------------------

                                                             IN                           OUT
                                                      ----------------             ----------------
                               CONSTANT CONCENTRATION:    0.000000                    0.000000    
                                        CONSTANT HEAD:    0.000000                    0.000000    
                                                WELLS:    0.000000                    0.000000    
                                             RECHARGE:    0.000000                    0.000000    
                               1ST/0TH ORDER REACTION:    0.000000                    0.000000    
                               MASS STOR (FLOW MODEL):    0.000000                    0.000000    
                                MASS STORAGE (SOLUTE):    0.000000                    0.000000    
                                MASS STORAGE (SORBED):    0.000000                    0.000000    
                            ---------------------------------------------------------------------------
                                              [TOTAL]:    0.000000     KG             0.000000     KG  

                                                          NET (IN - OUT):    0.000000    
                                                   DISCREPANCY (PERCENT):    0.000000    
     1 CALLS TO GCG PACKAGE FOR TRANSPORT TIME STEP     2 IN FLOW TIME STEP     1 STRESS PERIOD     1
      2 TOTAL ITERATIONS
     1 CALLS TO GCG PACKAGE FOR TRANSPORT TIME STEP     2 IN FLOW TIME STEP     1 STRESS PERIOD     1
      1 TOTAL ITERATIONS
     1 CALLS TO GCG PACKAGE FOR TRANSPORT TIME STEP     3 IN FLOW TIME STEP     1 STRESS PERIOD     1
      2 TOTAL ITERATIONS
     1 CALLS TO GCG PACKAGE FOR TRANSPORT TIME STEP     3 IN FLOW TIME STEP     1 STRESS PERIOD     1
      1 TOTAL ITERATIONS
     1 CALLS TO GCG PACKAGE FOR TRANSPORT TIME STEP     4 IN FLOW TIME STEP     1 STRESS PERIOD     1
      2 TOTAL ITERATIONS
     1 CALLS TO GCG PACKAGE FOR TRANSPORT TIME STEP     4 IN FLOW TIME STEP     1 STRESS PERIOD     1
      1 TOTAL ITERATIONS
     1 CALLS TO GCG PACKAGE FOR TRANSPORT TIME STEP     5 IN FLOW TIME STEP     1 STRESS PERIOD     1
      2 TOTAL ITERATIONS
     1 CALLS TO GCG PACKAGE FOR TRANSPORT TIME STEP     5 IN FLOW TIME STEP     1 STRESS PERIOD     1
      1 TOTAL ITERATIONS
     1 CALLS TO GCG PACKAGE FOR TRANSPORT TIME STEP     6 IN FLOW TIME STEP     1 STRESS PERIOD     1
      2 TOTAL ITERATIONS
     1 CALLS TO GCG PACKAGE FOR TRANSPORT TIME STEP     6 IN FLOW TIME STEP     1 STRESS PERIOD     1
      1 TOTAL ITERATIONS
     1 CALLS TO GCG PACKAGE FOR TRANSPORT TIME STEP     7 IN FLOW TIME STEP     1 STRESS PERIOD     1
      2 TOTAL ITERATIONS
     1 CALLS TO GCG PACKAGE FOR TRANSPORT TIME STEP     7 IN FLOW TIME STEP     1 STRESS PERIOD     1
      1 TOTAL ITERATIONS
     1 CALLS TO GCG PACKAGE FOR TRANSPORT TIME STEP     8 IN FLOW TIME STEP     1 STRESS PERIOD     1
      2 TOTAL ITERATIONS
     1 CALLS TO GCG PACKAGE FOR TRANSPORT TIME STEP     8 IN FLOW TIME STEP     1 STRESS PERIOD     1
      1 TOTAL ITERATIONS
     1 CALLS TO GCG PACKAGE FOR TRANSPORT TIME STEP     9 IN FLOW TIME STEP     1 STRESS PERIOD     1
      2 TOTAL ITERATIONS
     1 CALLS TO GCG PACKAGE FOR TRANSPORT TIME STEP     9 IN FLOW TIME STEP     1 STRESS PERIOD     1
      1 TOTAL ITERATIONS
     1 CALLS TO GCG PACKAGE FOR TRANSPORT TIME STEP    10 IN FLOW TIME STEP     1 STRESS PERIOD     1
      2 TOTAL ITERATIONS
     1 CALLS TO GCG PACKAGE FOR TRANSPORT TIME STEP    10 IN FLOW TIME STEP     1 STRESS PERIOD     1
      1 TOTAL ITERATIONS
     1 CALLS TO GCG PACKAGE FOR TRANSPORT TIME STEP    11 IN FLOW TIME STEP     1 STRESS PERIOD     1
      2 TOTAL ITERATIONS
     1 CALLS TO GCG PACKAGE FOR TRANSPORT TIME STEP    11 IN FLOW TIME STEP     1 STRESS PERIOD     1
      1 TOTAL ITERATIONS
     1 CALLS TO GCG PACKAGE FOR TRANSPORT TIME STEP    12 IN FLOW TIME STEP     1 STRESS PERIOD     1
      2 TOTAL ITERATIONS
     1 CALLS TO GCG PACKAGE FOR TRANSPORT TIME STEP    12 IN FLOW TIME STEP     1 STRESS PERIOD     1
      1 TOTAL ITERATIONS
     1 CALLS TO GCG PACKAGE FOR TRANSPORT TIME STEP    13 IN FLOW TIME STEP     1 STRESS PERIOD     1
      2 TOTAL ITERATIONS
     1 CALLS TO GCG PACKAGE FOR TRANSPORT TIME STEP    13 IN FLOW TIME STEP     1 STRESS PERIOD     1
      1 TOTAL ITERATIONS
     1 CALLS TO GCG PACKAGE FOR TRANSPORT TIME STEP    14 IN FLOW TIME STEP     1 STRESS PERIOD     1
      2 TOTAL ITERATIONS
     1 CALLS TO GCG PACKAGE FOR TRANSPORT TIME STEP    14 IN FLOW TIME STEP     1 STRESS PERIOD     1
      1 TOTAL ITERATIONS
     1 CALLS TO GCG PACKAGE FOR TRANSPORT TIME STEP    15 IN FLOW TIME STEP     1 STRESS PERIOD     1
      2 TOTAL ITERATIONS
     1 CALLS TO GCG PACKAGE FOR TRANSPORT TIME STEP    15 IN FLOW TIME STEP     1 STRESS PERIOD     1
      1 TOTAL ITERATIONS
     1 CALLS TO GCG PACKAGE FOR TRANSPORT TIME STEP    16 IN FLOW TIME STEP     1 STRESS PERIOD     1
      2 TOTAL ITERATIONS
     1 CALLS TO GCG PACKAGE FOR TRANSPORT TIME STEP    16 IN FLOW TIME STEP     1 STRESS PERIOD     1
      1 TOTAL ITERATIONS
     1 CALLS TO GCG PACKAGE FOR TRANSPORT TIME STEP    17 IN FLOW TIME STEP     1 STRESS PERIOD     1
      2 TOTAL ITERATIONS
     1 CALLS TO GCG PACKAGE FOR TRANSPORT TIME STEP    17 IN FLOW TIME STEP     1 STRESS PERIOD     1
      1 TOTAL ITERATIONS
     1 CALLS TO GCG PACKAGE FOR TRANSPORT TIME STEP    18 IN FLOW TIME STEP     1 STRESS PERIOD     1
      2 TOTAL ITERATIONS
     1 CALLS TO GCG PACKAGE FOR TRANSPORT TIME STEP    18 IN FLOW TIME STEP     1 STRESS PERIOD     1
      1 TOTAL ITERATIONS
     1 CALLS TO GCG PACKAGE FOR TRANSPORT TIME STEP    19 IN FLOW TIME STEP     1 STRESS PERIOD     1
      2 TOTAL ITERATIONS
     1 CALLS TO GCG PACKAGE FOR TRANSPORT TIME STEP    19 IN FLOW TIME STEP     1 STRESS PERIOD     1
      1 TOTAL ITERATIONS
     1 CALLS TO GCG PACKAGE FOR TRANSPORT TIME STEP    20 IN FLOW TIME STEP     1 STRESS PERIOD     1
      2 TOTAL ITERATIONS
     1 CALLS TO GCG PACKAGE FOR TRANSPORT TIME STEP    20 IN FLOW TIME STEP     1 STRESS PERIOD     1
      1 TOTAL ITERATIONS
     1 CALLS TO GCG PACKAGE FOR TRANSPORT TIME STEP    21 IN FLOW TIME STEP     1 STRESS PERIOD     1
      2 TOTAL ITERATIONS
     1 CALLS TO GCG PACKAGE FOR TRANSPORT TIME STEP    21 IN FLOW TIME STEP     1 STRESS PERIOD     1
      1 TOTAL ITERATIONS
     1 CALLS TO GCG PACKAGE FOR TRANSPORT TIME STEP    22 IN FLOW TIME STEP     1 STRESS PERIOD     1
      2 TOTAL ITERATIONS
     1 CALLS TO GCG PACKAGE FOR TRANSPORT TIME STEP    22 IN FLOW TIME STEP     1 STRESS PERIOD     1
      1 TOTAL ITERATIONS
     1 CALLS TO GCG PACKAGE FOR TRANSPORT TIME STEP    23 IN FLOW TIME STEP     1 STRESS PERIOD     1
      2 TOTAL ITERATIONS
     1 CALLS TO GCG PACKAGE FOR TRANSPORT TIME STEP    23 IN FLOW TIME STEP     1 STRESS PERIOD     1
      1 TOTAL ITERATIONS
     1 CALLS TO GCG PACKAGE FOR TRANSPORT TIME STEP    24 IN FLOW TIME STEP     1 STRESS PERIOD     1
      2 TOTAL ITERATIONS
     1 CALLS TO GCG PACKAGE FOR TRANSPORT TIME STEP    24 IN FLOW TIME STEP     1 STRESS PERIOD     1
      1 TOTAL ITERATIONS
     1 CALLS TO GCG PACKAGE FOR TRANSPORT TIME STEP    25 IN FLOW TIME STEP     1 STRESS PERIOD     1
      2 TOTAL ITERATIONS
     1 CALLS TO GCG PACKAGE FOR TRANSPORT TIME STEP    25 IN FLOW TIME STEP     1 STRESS PERIOD     1
      1 TOTAL ITERATIONS
     1 CALLS TO GCG PACKAGE FOR TRANSPORT TIME STEP    26 IN FLOW TIME STEP     1 STRESS PERIOD     1
      2 TOTAL ITERATIONS
     1 CALLS TO GCG PACKAGE FOR TRANSPORT TIME STEP    26 IN FLOW TIME STEP     1 STRESS PERIOD     1
      1 TOTAL ITERATIONS
     1 CALLS TO GCG PACKAGE FOR TRANSPORT TIME STEP    27 IN FLOW TIME STEP     1 STRESS PERIOD     1
      2 TOTAL ITERATIONS
     1 CALLS TO GCG PACKAGE FOR TRANSPORT TIME STEP    27 IN FLOW TIME STEP     1 STRESS PERIOD     1
      1 TOTAL ITERATIONS
     1 CALLS TO GCG PACKAGE FOR TRANSPORT TIME STEP    28 IN FLOW TIME STEP     1 STRESS PERIOD     1
      2 TOTAL ITERATIONS
     1 CALLS TO GCG PACKAGE FOR TRANSPORT TIME STEP    28 IN FLOW TIME STEP     1 STRESS PERIOD     1
      1 TOTAL ITERATIONS
     1 CALLS TO GCG PACKAGE FOR TRANSPORT TIME STEP    29 IN FLOW TIME STEP     1 STRESS PERIOD     1
      2 TOTAL ITERATIONS
     1 CALLS TO GCG PACKAGE FOR TRANSPORT TIME STEP    29 IN FLOW TIME STEP     1 STRESS PERIOD     1
      1 TOTAL ITERATIONS
     1 CALLS TO GCG PACKAGE FOR TRANSPORT TIME STEP    30 IN FLOW TIME STEP     1 STRESS PERIOD     1
      2 TOTAL ITERATIONS
     1 CALLS TO GCG PACKAGE FOR TRANSPORT TIME STEP    30 IN FLOW TIME STEP     1 STRESS PERIOD     1
      1 TOTAL ITERATIONS
     1 CALLS TO GCG PACKAGE FOR TRANSPORT TIME STEP    31 IN FLOW TIME STEP     1 STRESS PERIOD     1
      2 TOTAL ITERATIONS
     1 CALLS TO GCG PACKAGE FOR TRANSPORT TIME STEP    31 IN FLOW TIME STEP     1 STRESS PERIOD     1
      1 TOTAL ITERATIONS
     1 CALLS TO GCG PACKAGE FOR TRANSPORT TIME STEP    32 IN FLOW TIME STEP     1 STRESS PERIOD     1
      2 TOTAL ITERATIONS
     1 CALLS TO GCG PACKAGE FOR TRANSPORT TIME STEP    32 IN FLOW TIME STEP     1 STRESS PERIOD     1
      1 TOTAL ITERATIONS
     1 CALLS TO GCG PACKAGE FOR TRANSPORT TIME STEP    33 IN FLOW TIME STEP     1 STRESS PERIOD     1
      2 TOTAL ITERATIONS
     1 CALLS TO GCG PACKAGE FOR TRANSPORT TIME STEP    33 IN FLOW TIME STEP     1 STRESS PERIOD     1
      1 TOTAL ITERATIONS
     1 CALLS TO GCG PACKAGE FOR TRANSPORT TIME STEP    34 IN FLOW TIME STEP     1 STRESS PERIOD     1
      2 TOTAL ITERATIONS
     1 CALLS TO GCG PACKAGE FOR TRANSPORT TIME STEP    34 IN FLOW TIME STEP     1 STRESS PERIOD     1
      1 TOTAL ITERATIONS
     1 CALLS TO GCG PACKAGE FOR TRANSPORT TIME STEP    35 IN FLOW TIME STEP     1 STRESS PERIOD     1
      2 TOTAL ITERATIONS
     1 CALLS TO GCG PACKAGE FOR TRANSPORT TIME STEP    35 IN FLOW TIME STEP     1 STRESS PERIOD     1
      1 TOTAL ITERATIONS
     1 CALLS TO GCG PACKAGE FOR TRANSPORT TIME STEP    36 IN FLOW TIME STEP     1 STRESS PERIOD     1
      2 TOTAL ITERATIONS
     1 CALLS TO GCG PACKAGE FOR TRANSPORT TIME STEP    36 IN FLOW TIME STEP     1 STRESS PERIOD     1
      1 TOTAL ITERATIONS
     1 CALLS TO GCG PACKAGE FOR TRANSPORT TIME STEP    37 IN FLOW TIME STEP     1 STRESS PERIOD     1
      2 TOTAL ITERATIONS
     1 CALLS TO GCG PACKAGE FOR TRANSPORT TIME STEP    37 IN FLOW TIME STEP     1 STRESS PERIOD     1
      1 TOTAL ITERATIONS
     1 CALLS TO GCG PACKAGE FOR TRANSPORT TIME STEP    38 IN FLOW TIME STEP     1 STRESS PERIOD     1
      2 TOTAL ITERATIONS
     1 CALLS TO GCG PACKAGE FOR TRANSPORT TIME STEP    38 IN FLOW TIME STEP     1 STRESS PERIOD     1
      1 TOTAL ITERATIONS
     1 CALLS TO GCG PACKAGE FOR TRANSPORT TIME STEP    39 IN FLOW TIME STEP     1 STRESS PERIOD     1
      2 TOTAL ITERATIONS
     1 CALLS TO GCG PACKAGE FOR TRANSPORT TIME STEP    39 IN FLOW TIME STEP     1 STRESS PERIOD     1
      1 TOTAL ITERATIONS



 >>>>>>>>>>>>>>>>>>>>>>>>>>>>>>>>>>>>>>>>>>>>>>>>>>>>>>>FOR COMPONENT NO. 01<<<<<<<<<<<<<<<<<<<<<<<<<<<<<<<<<<<<<<<<<<<<<<<<<<<<<<<


                                            -------------------------------------------
                                                      TRANSPORT STEP NO.   39
                                            -------------------------------------------

 TOTAL ELAPSED TIME SINCE BEGINNING OF SIMULATION =   782.1400    D   
 .....................................................................

 TOTAL PARTICLES USED IN THE CURRENT STEP =     66526
 PARTICLES ADDED AT BEGINNING OF THE STEP =      1440
 PARTICLES REMOVED AT END OF LAST STEP    =       742

                     CUMULATIVE MASS BUDGETS AT END OF TRANSPORT STEP   39, TIME STEP    1, STRESS PERIOD    1
                     -----------------------------------------------------------------------------------------

                                                             IN                           OUT
                                                      ----------------             ----------------
                               CONSTANT CONCENTRATION:    0.000000                    0.000000    
                                        CONSTANT HEAD:    0.000000                  -0.5257499E-24
                                                WELLS:    0.000000                  -0.9733916E-06
                                             RECHARGE:    0.000000                    0.000000    
                               1ST/0TH ORDER REACTION:    0.000000                    0.000000    
                               MASS STOR (FLOW MODEL):    0.000000                    0.000000    
                                MASS STORAGE (SOLUTE):    9198.652                   -2978.017    
                                MASS STORAGE (SORBED):   0.5482823E-01              -0.1775037E-01
                            ---------------------------------------------------------------------------
                                              [TOTAL]:    9198.707     KG            -2978.035     KG  

                                                          NET (IN - OUT):    6220.672    
                                                   DISCREPANCY (PERCENT):    102.1730    



 >>>>>>>>>>>>>>>>>>>>>>>>>>>>>>>>>>>>>>>>>>>>>>>>>>>>>>>FOR COMPONENT NO. 02<<<<<<<<<<<<<<<<<<<<<<<<<<<<<<<<<<<<<<<<<<<<<<<<<<<<<<<


                                            -------------------------------------------
                                                      TRANSPORT STEP NO.   39
                                            -------------------------------------------

 TOTAL ELAPSED TIME SINCE BEGINNING OF SIMULATION =   782.1400    D   
 .....................................................................

 TOTAL PARTICLES USED IN THE CURRENT STEP =    137184
 PARTICLES ADDED AT BEGINNING OF THE STEP =         0
 PARTICLES REMOVED AT END OF LAST STEP    =         0

                     CUMULATIVE MASS BUDGETS AT END OF TRANSPORT STEP   39, TIME STEP    1, STRESS PERIOD    1
                     -----------------------------------------------------------------------------------------

                                                             IN                           OUT
                                                      ----------------             ----------------
                               CONSTANT CONCENTRATION:    0.000000                    0.000000    
                                        CONSTANT HEAD:    0.000000                    0.000000    
                                                WELLS:    0.000000                   -5603.392    
                                             RECHARGE:    0.000000                    0.000000    
                               1ST/0TH ORDER REACTION:    0.000000                    0.000000    
                               MASS STOR (FLOW MODEL):    0.000000                    0.000000    
                                MASS STORAGE (SOLUTE):    0.000000                    0.000000    
                                MASS STORAGE (SORBED):    0.000000                    0.000000    
                            ---------------------------------------------------------------------------
                                              [TOTAL]:    0.000000     KG            -5603.392     KG  

                                                          NET (IN - OUT):   -5603.392    
                                                   DISCREPANCY (PERCENT):    0.000000    
     1 CALLS TO GCG PACKAGE FOR TRANSPORT TIME STEP    40 IN FLOW TIME STEP     1 STRESS PERIOD     1
      2 TOTAL ITERATIONS
     1 CALLS TO GCG PACKAGE FOR TRANSPORT TIME STEP    40 IN FLOW TIME STEP     1 STRESS PERIOD     1
      1 TOTAL ITERATIONS
     1 CALLS TO GCG PACKAGE FOR TRANSPORT TIME STEP    41 IN FLOW TIME STEP     1 STRESS PERIOD     1
      2 TOTAL ITERATIONS
     1 CALLS TO GCG PACKAGE FOR TRANSPORT TIME STEP    41 IN FLOW TIME STEP     1 STRESS PERIOD     1
      1 TOTAL ITERATIONS
     1 CALLS TO GCG PACKAGE FOR TRANSPORT TIME STEP    42 IN FLOW TIME STEP     1 STRESS PERIOD     1
      2 TOTAL ITERATIONS
     1 CALLS TO GCG PACKAGE FOR TRANSPORT TIME STEP    42 IN FLOW TIME STEP     1 STRESS PERIOD     1
      1 TOTAL ITERATIONS
     1 CALLS TO GCG PACKAGE FOR TRANSPORT TIME STEP    43 IN FLOW TIME STEP     1 STRESS PERIOD     1
      2 TOTAL ITERATIONS
     1 CALLS TO GCG PACKAGE FOR TRANSPORT TIME STEP    43 IN FLOW TIME STEP     1 STRESS PERIOD     1
      1 TOTAL ITERATIONS
     1 CALLS TO GCG PACKAGE FOR TRANSPORT TIME STEP    44 IN FLOW TIME STEP     1 STRESS PERIOD     1
      2 TOTAL ITERATIONS
     1 CALLS TO GCG PACKAGE FOR TRANSPORT TIME STEP    44 IN FLOW TIME STEP     1 STRESS PERIOD     1
      1 TOTAL ITERATIONS
     1 CALLS TO GCG PACKAGE FOR TRANSPORT TIME STEP    45 IN FLOW TIME STEP     1 STRESS PERIOD     1
      2 TOTAL ITERATIONS
     1 CALLS TO GCG PACKAGE FOR TRANSPORT TIME STEP    45 IN FLOW TIME STEP     1 STRESS PERIOD     1
      1 TOTAL ITERATIONS
     1 CALLS TO GCG PACKAGE FOR TRANSPORT TIME STEP    46 IN FLOW TIME STEP     1 STRESS PERIOD     1
      2 TOTAL ITERATIONS
     1 CALLS TO GCG PACKAGE FOR TRANSPORT TIME STEP    46 IN FLOW TIME STEP     1 STRESS PERIOD     1
      1 TOTAL ITERATIONS
     1 CALLS TO GCG PACKAGE FOR TRANSPORT TIME STEP    47 IN FLOW TIME STEP     1 STRESS PERIOD     1
      2 TOTAL ITERATIONS
     1 CALLS TO GCG PACKAGE FOR TRANSPORT TIME STEP    47 IN FLOW TIME STEP     1 STRESS PERIOD     1
      1 TOTAL ITERATIONS
     1 CALLS TO GCG PACKAGE FOR TRANSPORT TIME STEP    48 IN FLOW TIME STEP     1 STRESS PERIOD     1
      2 TOTAL ITERATIONS
     1 CALLS TO GCG PACKAGE FOR TRANSPORT TIME STEP    48 IN FLOW TIME STEP     1 STRESS PERIOD     1
      1 TOTAL ITERATIONS
     1 CALLS TO GCG PACKAGE FOR TRANSPORT TIME STEP    49 IN FLOW TIME STEP     1 STRESS PERIOD     1
      2 TOTAL ITERATIONS
     1 CALLS TO GCG PACKAGE FOR TRANSPORT TIME STEP    49 IN FLOW TIME STEP     1 STRESS PERIOD     1
      1 TOTAL ITERATIONS
     1 CALLS TO GCG PACKAGE FOR TRANSPORT TIME STEP    50 IN FLOW TIME STEP     1 STRESS PERIOD     1
      2 TOTAL ITERATIONS
     1 CALLS TO GCG PACKAGE FOR TRANSPORT TIME STEP    50 IN FLOW TIME STEP     1 STRESS PERIOD     1
      1 TOTAL ITERATIONS
     1 CALLS TO GCG PACKAGE FOR TRANSPORT TIME STEP    51 IN FLOW TIME STEP     1 STRESS PERIOD     1
      2 TOTAL ITERATIONS
     1 CALLS TO GCG PACKAGE FOR TRANSPORT TIME STEP    51 IN FLOW TIME STEP     1 STRESS PERIOD     1
      1 TOTAL ITERATIONS
     1 CALLS TO GCG PACKAGE FOR TRANSPORT TIME STEP    52 IN FLOW TIME STEP     1 STRESS PERIOD     1
      2 TOTAL ITERATIONS
     1 CALLS TO GCG PACKAGE FOR TRANSPORT TIME STEP    52 IN FLOW TIME STEP     1 STRESS PERIOD     1
      1 TOTAL ITERATIONS
     1 CALLS TO GCG PACKAGE FOR TRANSPORT TIME STEP    53 IN FLOW TIME STEP     1 STRESS PERIOD     1
      2 TOTAL ITERATIONS
     1 CALLS TO GCG PACKAGE FOR TRANSPORT TIME STEP    53 IN FLOW TIME STEP     1 STRESS PERIOD     1
      1 TOTAL ITERATIONS
     1 CALLS TO GCG PACKAGE FOR TRANSPORT TIME STEP    54 IN FLOW TIME STEP     1 STRESS PERIOD     1
      2 TOTAL ITERATIONS
     1 CALLS TO GCG PACKAGE FOR TRANSPORT TIME STEP    54 IN FLOW TIME STEP     1 STRESS PERIOD     1
      1 TOTAL ITERATIONS
     1 CALLS TO GCG PACKAGE FOR TRANSPORT TIME STEP    55 IN FLOW TIME STEP     1 STRESS PERIOD     1
      2 TOTAL ITERATIONS
     1 CALLS TO GCG PACKAGE FOR TRANSPORT TIME STEP    55 IN FLOW TIME STEP     1 STRESS PERIOD     1
      1 TOTAL ITERATIONS
     1 CALLS TO GCG PACKAGE FOR TRANSPORT TIME STEP    56 IN FLOW TIME STEP     1 STRESS PERIOD     1
      2 TOTAL ITERATIONS
     1 CALLS TO GCG PACKAGE FOR TRANSPORT TIME STEP    56 IN FLOW TIME STEP     1 STRESS PERIOD     1
      1 TOTAL ITERATIONS
     1 CALLS TO GCG PACKAGE FOR TRANSPORT TIME STEP    57 IN FLOW TIME STEP     1 STRESS PERIOD     1
      2 TOTAL ITERATIONS
     1 CALLS TO GCG PACKAGE FOR TRANSPORT TIME STEP    57 IN FLOW TIME STEP     1 STRESS PERIOD     1
      1 TOTAL ITERATIONS
     1 CALLS TO GCG PACKAGE FOR TRANSPORT TIME STEP    58 IN FLOW TIME STEP     1 STRESS PERIOD     1
      2 TOTAL ITERATIONS
     1 CALLS TO GCG PACKAGE FOR TRANSPORT TIME STEP    58 IN FLOW TIME STEP     1 STRESS PERIOD     1
      1 TOTAL ITERATIONS
     1 CALLS TO GCG PACKAGE FOR TRANSPORT TIME STEP    59 IN FLOW TIME STEP     1 STRESS PERIOD     1
      2 TOTAL ITERATIONS
     1 CALLS TO GCG PACKAGE FOR TRANSPORT TIME STEP    59 IN FLOW TIME STEP     1 STRESS PERIOD     1
      1 TOTAL ITERATIONS
     1 CALLS TO GCG PACKAGE FOR TRANSPORT TIME STEP    60 IN FLOW TIME STEP     1 STRESS PERIOD     1
      2 TOTAL ITERATIONS
     1 CALLS TO GCG PACKAGE FOR TRANSPORT TIME STEP    60 IN FLOW TIME STEP     1 STRESS PERIOD     1
      1 TOTAL ITERATIONS
     1 CALLS TO GCG PACKAGE FOR TRANSPORT TIME STEP    61 IN FLOW TIME STEP     1 STRESS PERIOD     1
      2 TOTAL ITERATIONS
     1 CALLS TO GCG PACKAGE FOR TRANSPORT TIME STEP    61 IN FLOW TIME STEP     1 STRESS PERIOD     1
      1 TOTAL ITERATIONS
     1 CALLS TO GCG PACKAGE FOR TRANSPORT TIME STEP    62 IN FLOW TIME STEP     1 STRESS PERIOD     1
      2 TOTAL ITERATIONS
     1 CALLS TO GCG PACKAGE FOR TRANSPORT TIME STEP    62 IN FLOW TIME STEP     1 STRESS PERIOD     1
      1 TOTAL ITERATIONS
     1 CALLS TO GCG PACKAGE FOR TRANSPORT TIME STEP    63 IN FLOW TIME STEP     1 STRESS PERIOD     1
      2 TOTAL ITERATIONS
     1 CALLS TO GCG PACKAGE FOR TRANSPORT TIME STEP    63 IN FLOW TIME STEP     1 STRESS PERIOD     1
      1 TOTAL ITERATIONS
     1 CALLS TO GCG PACKAGE FOR TRANSPORT TIME STEP    64 IN FLOW TIME STEP     1 STRESS PERIOD     1
      2 TOTAL ITERATIONS
     1 CALLS TO GCG PACKAGE FOR TRANSPORT TIME STEP    64 IN FLOW TIME STEP     1 STRESS PERIOD     1
      1 TOTAL ITERATIONS
     1 CALLS TO GCG PACKAGE FOR TRANSPORT TIME STEP    65 IN FLOW TIME STEP     1 STRESS PERIOD     1
      2 TOTAL ITERATIONS
     1 CALLS TO GCG PACKAGE FOR TRANSPORT TIME STEP    65 IN FLOW TIME STEP     1 STRESS PERIOD     1
      1 TOTAL ITERATIONS
     1 CALLS TO GCG PACKAGE FOR TRANSPORT TIME STEP    66 IN FLOW TIME STEP     1 STRESS PERIOD     1
      2 TOTAL ITERATIONS
     1 CALLS TO GCG PACKAGE FOR TRANSPORT TIME STEP    66 IN FLOW TIME STEP     1 STRESS PERIOD     1
      1 TOTAL ITERATIONS
     1 CALLS TO GCG PACKAGE FOR TRANSPORT TIME STEP    67 IN FLOW TIME STEP     1 STRESS PERIOD     1
      2 TOTAL ITERATIONS
     1 CALLS TO GCG PACKAGE FOR TRANSPORT TIME STEP    67 IN FLOW TIME STEP     1 STRESS PERIOD     1
      1 TOTAL ITERATIONS
     1 CALLS TO GCG PACKAGE FOR TRANSPORT TIME STEP    68 IN FLOW TIME STEP     1 STRESS PERIOD     1
      2 TOTAL ITERATIONS
     1 CALLS TO GCG PACKAGE FOR TRANSPORT TIME STEP    68 IN FLOW TIME STEP     1 STRESS PERIOD     1
      1 TOTAL ITERATIONS
     1 CALLS TO GCG PACKAGE FOR TRANSPORT TIME STEP    69 IN FLOW TIME STEP     1 STRESS PERIOD     1
      2 TOTAL ITERATIONS
     1 CALLS TO GCG PACKAGE FOR TRANSPORT TIME STEP    69 IN FLOW TIME STEP     1 STRESS PERIOD     1
      1 TOTAL ITERATIONS
[...]
     1 CALLS TO GCG PACKAGE FOR TRANSPORT TIME STEP   494 IN FLOW TIME STEP     1 STRESS PERIOD     1
      1 TOTAL ITERATIONS
     1 CALLS TO GCG PACKAGE FOR TRANSPORT TIME STEP   495 IN FLOW TIME STEP     1 STRESS PERIOD     1
      2 TOTAL ITERATIONS
     1 CALLS TO GCG PACKAGE FOR TRANSPORT TIME STEP   495 IN FLOW TIME STEP     1 STRESS PERIOD     1
      1 TOTAL ITERATIONS



 >>>>>>>>>>>>>>>>>>>>>>>>>>>>>>>>>>>>>>>>>>>>>>>>>>>>>>>FOR COMPONENT NO. 01<<<<<<<<<<<<<<<<<<<<<<<<<<<<<<<<<<<<<<<<<<<<<<<<<<<<<<<


                                            -------------------------------------------
                                                      TRANSPORT STEP NO.  495
                                            -------------------------------------------

 TOTAL ELAPSED TIME SINCE BEGINNING OF SIMULATION =   10168.00    D   
 .....................................................................

 TOTAL PARTICLES USED IN THE CURRENT STEP =    299143
 PARTICLES ADDED AT BEGINNING OF THE STEP =      7200
 PARTICLES REMOVED AT END OF LAST STEP    =      3722

                     CUMULATIVE MASS BUDGETS AT END OF TRANSPORT STEP  495, TIME STEP    1, STRESS PERIOD    1
                     -----------------------------------------------------------------------------------------

                                                             IN                           OUT
                                                      ----------------             ----------------
                               CONSTANT CONCENTRATION:    0.000000                    0.000000    
                                        CONSTANT HEAD:    0.000000                  -0.4044622E-02
                                                WELLS:    0.000000                   -14561.58    
                                             RECHARGE:    0.000000                    0.000000    
                               1ST/0TH ORDER REACTION:    0.000000                    0.000000    
                               MASS STOR (FLOW MODEL):    0.000000                    0.000000    
                                MASS STORAGE (SOLUTE):    161674.4                   -146581.0    
                                MASS STORAGE (SORBED):   0.9636553                  -0.8736904    
                            ---------------------------------------------------------------------------
                                              [TOTAL]:    161675.3     KG            -161143.4     KG  

                                                          NET (IN - OUT):    531.9219    
                                                   DISCREPANCY (PERCENT):   0.3295483    



 >>>>>>>>>>>>>>>>>>>>>>>>>>>>>>>>>>>>>>>>>>>>>>>>>>>>>>>FOR COMPONENT NO. 02<<<<<<<<<<<<<<<<<<<<<<<<<<<<<<<<<<<<<<<<<<<<<<<<<<<<<<<


                                            -------------------------------------------
                                                      TRANSPORT STEP NO.  495
                                            -------------------------------------------

 TOTAL ELAPSED TIME SINCE BEGINNING OF SIMULATION =   10168.00    D   
 .....................................................................

 TOTAL PARTICLES USED IN THE CURRENT STEP =    137184
 PARTICLES ADDED AT BEGINNING OF THE STEP =         0
 PARTICLES REMOVED AT END OF LAST STEP    =         0

                     CUMULATIVE MASS BUDGETS AT END OF TRANSPORT STEP  495, TIME STEP    1, STRESS PERIOD    1
                     -----------------------------------------------------------------------------------------

                                                             IN                           OUT
                                                      ----------------             ----------------
                               CONSTANT CONCENTRATION:    0.000000                    0.000000    
                                        CONSTANT HEAD:    0.000000                    0.000000    
                                                WELLS:    0.000000                   -72844.99    
                                             RECHARGE:    0.000000                    0.000000    
                               1ST/0TH ORDER REACTION:    0.000000                    0.000000    
                               MASS STOR (FLOW MODEL):    0.000000                    0.000000    
                                MASS STORAGE (SOLUTE):    0.000000                    0.000000    
                                MASS STORAGE (SORBED):    0.000000                    0.000000    
                            ---------------------------------------------------------------------------
                                              [TOTAL]:    0.000000     KG            -72844.99     KG  

                                                          NET (IN - OUT):   -72844.99    
                                                   DISCREPANCY (PERCENT):    0.000000    
     1 CALLS TO GCG PACKAGE FOR TRANSPORT TIME STEP   496 IN FLOW TIME STEP     1 STRESS PERIOD     1
      2 TOTAL ITERATIONS
     1 CALLS TO GCG PACKAGE FOR TRANSPORT TIME STEP   496 IN FLOW TIME STEP     1 STRESS PERIOD     1
      1 TOTAL ITERATIONS
     1 CALLS TO GCG PACKAGE FOR TRANSPORT TIME STEP   497 IN FLOW TIME STEP     1 STRESS PERIOD     1
      2 TOTAL ITERATIONS
     1 CALLS TO GCG PACKAGE FOR TRANSPORT TIME STEP   497 IN FLOW TIME STEP     1 STRESS PERIOD     1
      1 TOTAL ITERATIONS
     1 CALLS TO GCG PACKAGE FOR TRANSPORT TIME STEP   498 IN FLOW TIME STEP     1 STRESS PERIOD     1
      2 TOTAL ITERATIONS
     1 CALLS TO GCG PACKAGE FOR TRANSPORT TIME STEP   498 IN FLOW TIME STEP     1 STRESS PERIOD     1
      1 TOTAL ITERATIONS
     1 CALLS TO GCG PACKAGE FOR TRANSPORT TIME STEP   499 IN FLOW TIME STEP     1 STRESS PERIOD     1
      2 TOTAL ITERATIONS
     1 CALLS TO GCG PACKAGE FOR TRANSPORT TIME STEP   499 IN FLOW TIME STEP     1 STRESS PERIOD     1
      1 TOTAL ITERATIONS
     1 CALLS TO GCG PACKAGE FOR TRANSPORT TIME STEP   500 IN FLOW TIME STEP     1 STRESS PERIOD     1
      2 TOTAL ITERATIONS
     1 CALLS TO GCG PACKAGE FOR TRANSPORT TIME STEP   500 IN FLOW TIME STEP     1 STRESS PERIOD     1
      1 TOTAL ITERATIONS
     1 CALLS TO GCG PACKAGE FOR TRANSPORT TIME STEP   501 IN FLOW TIME STEP     1 STRESS PERIOD     1
      2 TOTAL ITERATIONS
     1 CALLS TO GCG PACKAGE FOR TRANSPORT TIME STEP   501 IN FLOW TIME STEP     1 STRESS PERIOD     1
      1 TOTAL ITERATIONS
     1 CALLS TO GCG PACKAGE FOR TRANSPORT TIME STEP   502 IN FLOW TIME STEP     1 STRESS PERIOD     1
      2 TOTAL ITERATIONS
     1 CALLS TO GCG PACKAGE FOR TRANSPORT TIME STEP   502 IN FLOW TIME STEP     1 STRESS PERIOD     1
      1 TOTAL ITERATIONS
     1 CALLS TO GCG PACKAGE FOR TRANSPORT TIME STEP   503 IN FLOW TIME STEP     1 STRESS PERIOD     1
      2 TOTAL ITERATIONS
     1 CALLS TO GCG PACKAGE FOR TRANSPORT TIME STEP   503 IN FLOW TIME STEP     1 STRESS PERIOD     1
      1 TOTAL ITERATIONS
     1 CALLS TO GCG PACKAGE FOR TRANSPORT TIME STEP   504 IN FLOW TIME STEP     1 STRESS PERIOD     1
      2 TOTAL ITERATIONS
     1 CALLS TO GCG PACKAGE FOR TRANSPORT TIME STEP   504 IN FLOW TIME STEP     1 STRESS PERIOD     1
      1 TOTAL ITERATIONS
     1 CALLS TO GCG PACKAGE FOR TRANSPORT TIME STEP   505 IN FLOW TIME STEP     1 STRESS PERIOD     1
      2 TOTAL ITERATIONS
     1 CALLS TO GCG PACKAGE FOR TRANSPORT TIME STEP   505 IN FLOW TIME STEP     1 STRESS PERIOD     1
      1 TOTAL ITERATIONS
     1 CALLS TO GCG PACKAGE FOR TRANSPORT TIME STEP   506 IN FLOW TIME STEP     1 STRESS PERIOD     1
      2 TOTAL ITERATIONS
     1 CALLS TO GCG PACKAGE FOR TRANSPORT TIME STEP   506 IN FLOW TIME STEP     1 STRESS PERIOD     1
      1 TOTAL ITERATIONS
     1 CALLS TO GCG PACKAGE FOR TRANSPORT TIME STEP   507 IN FLOW TIME STEP     1 STRESS PERIOD     1
      2 TOTAL ITERATIONS
     1 CALLS TO GCG PACKAGE FOR TRANSPORT TIME STEP   507 IN FLOW TIME STEP     1 STRESS PERIOD     1
      1 TOTAL ITERATIONS
     1 CALLS TO GCG PACKAGE FOR TRANSPORT TIME STEP   508 IN FLOW TIME STEP     1 STRESS PERIOD     1
      2 TOTAL ITERATIONS
     1 CALLS TO GCG PACKAGE FOR TRANSPORT TIME STEP   508 IN FLOW TIME STEP     1 STRESS PERIOD     1
      1 TOTAL ITERATIONS
     1 CALLS TO GCG PACKAGE FOR TRANSPORT TIME STEP   509 IN FLOW TIME STEP     1 STRESS PERIOD     1
      2 TOTAL ITERATIONS
     1 CALLS TO GCG PACKAGE FOR TRANSPORT TIME STEP   509 IN FLOW TIME STEP     1 STRESS PERIOD     1
      1 TOTAL ITERATIONS
     1 CALLS TO GCG PACKAGE FOR TRANSPORT TIME STEP   510 IN FLOW TIME STEP     1 STRESS PERIOD     1
      2 TOTAL ITERATIONS
     1 CALLS TO GCG PACKAGE FOR TRANSPORT TIME STEP   510 IN FLOW TIME STEP     1 STRESS PERIOD     1
      1 TOTAL ITERATIONS
     1 CALLS TO GCG PACKAGE FOR TRANSPORT TIME STEP   511 IN FLOW TIME STEP     1 STRESS PERIOD     1
      2 TOTAL ITERATIONS
     1 CALLS TO GCG PACKAGE FOR TRANSPORT TIME STEP   511 IN FLOW TIME STEP     1 STRESS PERIOD     1
      1 TOTAL ITERATIONS
     1 CALLS TO GCG PACKAGE FOR TRANSPORT TIME STEP   512 IN FLOW TIME STEP     1 STRESS PERIOD     1
      2 TOTAL ITERATIONS
     1 CALLS TO GCG PACKAGE FOR TRANSPORT TIME STEP   512 IN FLOW TIME STEP     1 STRESS PERIOD     1
      1 TOTAL ITERATIONS
     1 CALLS TO GCG PACKAGE FOR TRANSPORT TIME STEP   513 IN FLOW TIME STEP     1 STRESS PERIOD     1
      2 TOTAL ITERATIONS
     1 CALLS TO GCG PACKAGE FOR TRANSPORT TIME STEP   513 IN FLOW TIME STEP     1 STRESS PERIOD     1
      1 TOTAL ITERATIONS
     1 CALLS TO GCG PACKAGE FOR TRANSPORT TIME STEP   514 IN FLOW TIME STEP     1 STRESS PERIOD     1
      2 TOTAL ITERATIONS
     1 CALLS TO GCG PACKAGE FOR TRANSPORT TIME STEP   514 IN FLOW TIME STEP     1 STRESS PERIOD     1
      1 TOTAL ITERATIONS
     1 CALLS TO GCG PACKAGE FOR TRANSPORT TIME STEP   515 IN FLOW TIME STEP     1 STRESS PERIOD     1
      2 TOTAL ITERATIONS
     1 CALLS TO GCG PACKAGE FOR TRANSPORT TIME STEP   515 IN FLOW TIME STEP     1 STRESS PERIOD     1
      1 TOTAL ITERATIONS
     1 CALLS TO GCG PACKAGE FOR TRANSPORT TIME STEP   516 IN FLOW TIME STEP     1 STRESS PERIOD     1
      2 TOTAL ITERATIONS
     1 CALLS TO GCG PACKAGE FOR TRANSPORT TIME STEP   516 IN FLOW TIME STEP     1 STRESS PERIOD     1
      1 TOTAL ITERATIONS
     1 CALLS TO GCG PACKAGE FOR TRANSPORT TIME STEP   517 IN FLOW TIME STEP     1 STRESS PERIOD     1
      2 TOTAL ITERATIONS
     1 CALLS TO GCG PACKAGE FOR TRANSPORT TIME STEP   517 IN FLOW TIME STEP     1 STRESS PERIOD     1
      1 TOTAL ITERATIONS
     1 CALLS TO GCG PACKAGE FOR TRANSPORT TIME STEP   518 IN FLOW TIME STEP     1 STRESS PERIOD     1
      2 TOTAL ITERATIONS
     1 CALLS TO GCG PACKAGE FOR TRANSPORT TIME STEP   518 IN FLOW TIME STEP     1 STRESS PERIOD     1
      1 TOTAL ITERATIONS
     1 CALLS TO GCG PACKAGE FOR TRANSPORT TIME STEP   519 IN FLOW TIME STEP     1 STRESS PERIOD     1
      2 TOTAL ITERATIONS
     1 CALLS TO GCG PACKAGE FOR TRANSPORT TIME STEP   519 IN FLOW TIME STEP     1 STRESS PERIOD     1
      1 TOTAL ITERATIONS
     1 CALLS TO GCG PACKAGE FOR TRANSPORT TIME STEP   520 IN FLOW TIME STEP     1 STRESS PERIOD     1
      2 TOTAL ITERATIONS
     1 CALLS TO GCG PACKAGE FOR TRANSPORT TIME STEP   520 IN FLOW TIME STEP     1 STRESS PERIOD     1
      1 TOTAL ITERATIONS
     1 CALLS TO GCG PACKAGE FOR TRANSPORT TIME STEP   521 IN FLOW TIME STEP     1 STRESS PERIOD     1
      2 TOTAL ITERATIONS
     1 CALLS TO GCG PACKAGE FOR TRANSPORT TIME STEP   521 IN FLOW TIME STEP     1 STRESS PERIOD     1
      1 TOTAL ITERATIONS
     1 CALLS TO GCG PACKAGE FOR TRANSPORT TIME STEP   522 IN FLOW TIME STEP     1 STRESS PERIOD     1
      2 TOTAL ITERATIONS
     1 CALLS TO GCG PACKAGE FOR TRANSPORT TIME STEP   522 IN FLOW TIME STEP     1 STRESS PERIOD     1
      1 TOTAL ITERATIONS
     1 CALLS TO GCG PACKAGE FOR TRANSPORT TIME STEP   523 IN FLOW TIME STEP     1 STRESS PERIOD     1
      2 TOTAL ITERATIONS
     1 CALLS TO GCG PACKAGE FOR TRANSPORT TIME STEP   523 IN FLOW TIME STEP     1 STRESS PERIOD     1
      1 TOTAL ITERATIONS
     1 CALLS TO GCG PACKAGE FOR TRANSPORT TIME STEP   524 IN FLOW TIME STEP     1 STRESS PERIOD     1
      2 TOTAL ITERATIONS
     1 CALLS TO GCG PACKAGE FOR TRANSPORT TIME STEP   524 IN FLOW TIME STEP     1 STRESS PERIOD     1
      1 TOTAL ITERATIONS
     1 CALLS TO GCG PACKAGE FOR TRANSPORT TIME STEP   525 IN FLOW TIME STEP     1 STRESS PERIOD     1
      2 TOTAL ITERATIONS
     1 CALLS TO GCG PACKAGE FOR TRANSPORT TIME STEP   525 IN FLOW TIME STEP     1 STRESS PERIOD     1
      1 TOTAL ITERATIONS
     1 CALLS TO GCG PACKAGE FOR TRANSPORT TIME STEP   526 IN FLOW TIME STEP     1 STRESS PERIOD     1
      2 TOTAL ITERATIONS
     1 CALLS TO GCG PACKAGE FOR TRANSPORT TIME STEP   526 IN FLOW TIME STEP     1 STRESS PERIOD     1
      1 TOTAL ITERATIONS
     1 CALLS TO GCG PACKAGE FOR TRANSPORT TIME STEP   527 IN FLOW TIME STEP     1 STRESS PERIOD     1
      2 TOTAL ITERATIONS
     1 CALLS TO GCG PACKAGE FOR TRANSPORT TIME STEP   527 IN FLOW TIME STEP     1 STRESS PERIOD     1
      1 TOTAL ITERATIONS
     1 CALLS TO GCG PACKAGE FOR TRANSPORT TIME STEP   528 IN FLOW TIME STEP     1 STRESS PERIOD     1
      2 TOTAL ITERATIONS
     1 CALLS TO GCG PACKAGE FOR TRANSPORT TIME STEP   528 IN FLOW TIME STEP     1 STRESS PERIOD     1
      1 TOTAL ITERATIONS
     1 CALLS TO GCG PACKAGE FOR TRANSPORT TIME STEP   529 IN FLOW TIME STEP     1 STRESS PERIOD     1
      2 TOTAL ITERATIONS
     1 CALLS TO GCG PACKAGE FOR TRANSPORT TIME STEP   529 IN FLOW TIME STEP     1 STRESS PERIOD     1
      1 TOTAL ITERATIONS
     1 CALLS TO GCG PACKAGE FOR TRANSPORT TIME STEP   530 IN FLOW TIME STEP     1 STRESS PERIOD     1
      2 TOTAL ITERATIONS
     1 CALLS TO GCG PACKAGE FOR TRANSPORT TIME STEP   530 IN FLOW TIME STEP     1 STRESS PERIOD     1
      1 TOTAL ITERATIONS
     1 CALLS TO GCG PACKAGE FOR TRANSPORT TIME STEP   531 IN FLOW TIME STEP     1 STRESS PERIOD     1
      2 TOTAL ITERATIONS
     1 CALLS TO GCG PACKAGE FOR TRANSPORT TIME STEP   531 IN FLOW TIME STEP     1 STRESS PERIOD     1
      1 TOTAL ITERATIONS
     1 CALLS TO GCG PACKAGE FOR TRANSPORT TIME STEP   532 IN FLOW TIME STEP     1 STRESS PERIOD     1
      2 TOTAL ITERATIONS
     1 CALLS TO GCG PACKAGE FOR TRANSPORT TIME STEP   532 IN FLOW TIME STEP     1 STRESS PERIOD     1
      1 TOTAL ITERATIONS
     1 CALLS TO GCG PACKAGE FOR TRANSPORT TIME STEP   533 IN FLOW TIME STEP     1 STRESS PERIOD     1
      2 TOTAL ITERATIONS
  MAXIMUM CONCENTRATION CHANGES FOR EACH ITERATION:
  MAX. CHANGE LAYER,ROW,COL MAX. CHANGE LAYER,ROW,COL MAX. CHANGE LAYER,ROW,COL MAX. CHANGE LAYER,ROW,COL MAX. CHANGE LAYER,ROW,COL
 ------------------------------------------------------------------------------------------------------------------------------------
   0.2605E-02 ( 13, 39, 27)  0.1399E-06 ( 13, 40, 26)
     1 CALLS TO GCG PACKAGE FOR TRANSPORT TIME STEP   533 IN FLOW TIME STEP     1 STRESS PERIOD     1
      1 TOTAL ITERATIONS
  MAXIMUM CONCENTRATION CHANGES FOR EACH ITERATION:
  MAX. CHANGE LAYER,ROW,COL MAX. CHANGE LAYER,ROW,COL MAX. CHANGE LAYER,ROW,COL MAX. CHANGE LAYER,ROW,COL MAX. CHANGE LAYER,ROW,COL
 ------------------------------------------------------------------------------------------------------------------------------------
    0.000     (  1,  1,  1)



 >>>>>>>>>>>>>>>>>>>>>>>>>>>>>>>>>>>>>>>>>>>>>>>>>>>>>>>FOR COMPONENT NO. 01<<<<<<<<<<<<<<<<<<<<<<<<<<<<<<<<<<<<<<<<<<<<<<<<<<<<<<<


                                            -------------------------------------------
                                                      TRANSPORT STEP NO.  533
                                            -------------------------------------------

 TOTAL ELAPSED TIME SINCE BEGINNING OF SIMULATION =   10950.00    D   
 .....................................................................

 TOTAL PARTICLES USED IN THE CURRENT STEP =    299520
 PARTICLES ADDED AT BEGINNING OF THE STEP =      6944
 PARTICLES REMOVED AT END OF LAST STEP    =      3581

                     CUMULATIVE MASS BUDGETS AT END OF TRANSPORT STEP  533, TIME STEP    1, STRESS PERIOD    1
                     -----------------------------------------------------------------------------------------

                                                             IN                           OUT
                                                      ----------------             ----------------
                               CONSTANT CONCENTRATION:    0.000000                    0.000000    
                                        CONSTANT HEAD:    0.000000                  -0.1003464E-01
                                                WELLS:    0.000000                   -16860.23    
                                             RECHARGE:    0.000000                    0.000000    
                               1ST/0TH ORDER REACTION:    0.000000                    0.000000    
                               MASS STOR (FLOW MODEL):    0.000000                    0.000000    
                                MASS STORAGE (SOLUTE):    171539.6                   -154536.9    
                                MASS STORAGE (SORBED):    1.022457                  -0.9211110    
                            ---------------------------------------------------------------------------
                                              [TOTAL]:    171540.6     KG            -171398.1     KG  

                                                          NET (IN - OUT):    142.5469    
                                                   DISCREPANCY (PERCENT):   0.8313257E-01



 >>>>>>>>>>>>>>>>>>>>>>>>>>>>>>>>>>>>>>>>>>>>>>>>>>>>>>>FOR COMPONENT NO. 02<<<<<<<<<<<<<<<<<<<<<<<<<<<<<<<<<<<<<<<<<<<<<<<<<<<<<<<


                                            -------------------------------------------
                                                      TRANSPORT STEP NO.  533
                                            -------------------------------------------

 TOTAL ELAPSED TIME SINCE BEGINNING OF SIMULATION =   10950.00    D   
 .....................................................................

 TOTAL PARTICLES USED IN THE CURRENT STEP =    137184
 PARTICLES ADDED AT BEGINNING OF THE STEP =         0
 PARTICLES REMOVED AT END OF LAST STEP    =         0

                     CUMULATIVE MASS BUDGETS AT END OF TRANSPORT STEP  533, TIME STEP    1, STRESS PERIOD    1
                     -----------------------------------------------------------------------------------------

                                                             IN                           OUT
                                                      ----------------             ----------------
                               CONSTANT CONCENTRATION:    0.000000                    0.000000    
                                        CONSTANT HEAD:    0.000000                    0.000000    
                                                WELLS:    0.000000                   -78447.34    
                                             RECHARGE:    0.000000                    0.000000    
                               1ST/0TH ORDER REACTION:    0.000000                    0.000000    
                               MASS STOR (FLOW MODEL):    0.000000                    0.000000    
                                MASS STORAGE (SOLUTE):    0.000000                    0.000000    
                                MASS STORAGE (SORBED):    0.000000                    0.000000    
                            ---------------------------------------------------------------------------
                                              [TOTAL]:    0.000000     KG            -78447.34     KG  

                                                          NET (IN - OUT):   -78447.34    
                                                   DISCREPANCY (PERCENT):    0.000000    
  ----- 
 | M T |
 | 3 D | END OF MODEL OUTPUT
  ----- 
