                                  MODFLOW-2005     
      U.S. GEOLOGICAL SURVEY MODULAR FINITE-DIFFERENCE GROUND-WATER FLOW MODEL
                            VERSION 1.12.00 2/3/2017

 LIST FILE: Griftpark.list
                         UNIT    2

 OPENING Griftpark.dis
 FILE TYPE:DIS   UNIT   11   STATUS:OLD    
 FORMAT:FORMATTED              ACCESS:SEQUENTIAL          

 OPENING Griftpark.bas
 FILE TYPE:BAS6   UNIT   13   STATUS:OLD    
 FORMAT:FORMATTED              ACCESS:SEQUENTIAL          

 OPENING Griftpark.lpf
 FILE TYPE:LPF   UNIT   15   STATUS:OLD    
 FORMAT:FORMATTED              ACCESS:SEQUENTIAL          

 OPENING Griftpark.hfb
 FILE TYPE:HFB6   UNIT   29   STATUS:OLD    
 FORMAT:FORMATTED              ACCESS:SEQUENTIAL          

 OPENING Griftpark.wel
 FILE TYPE:WEL   UNIT   20   STATUS:OLD    
 FORMAT:FORMATTED              ACCESS:SEQUENTIAL          

 OPENING Griftpark.rch
 FILE TYPE:RCH   UNIT   19   STATUS:OLD    
 FORMAT:FORMATTED              ACCESS:SEQUENTIAL          

 OPENING Griftpark.oc
 FILE TYPE:OC   UNIT   14   STATUS:OLD    
 FORMAT:FORMATTED              ACCESS:SEQUENTIAL          

 OPENING Griftpark.lmt6
 FILE TYPE:LMT6   UNIT   30   STATUS:OLD    
 FORMAT:FORMATTED              ACCESS:SEQUENTIAL          

 OPENING Griftpark.gmg
 FILE TYPE:GMG   UNIT   27   STATUS:OLD    
 FORMAT:FORMATTED              ACCESS:SEQUENTIAL          

 OPENING Griftpark.hds
 FILE TYPE:DATA(BINARY)   UNIT   51   STATUS:REPLACE
 FORMAT:UNFORMATTED            ACCESS:STREAM              

 OPENING Griftpark.cbc
 FILE TYPE:DATA(BINARY)   UNIT 1001   STATUS:REPLACE
 FORMAT:UNFORMATTED            ACCESS:STREAM              

 BAS -- BASIC PACKAGE, VERSION 7, 5/2/2005 INPUT READ FROM UNIT   13
 
 MODFLOW was compiled using mixed precision
 Precision of REAL variables:           6
 Precision of DOUBLE PRECISION variables:          15

 DISCRETIZATION INPUT DATA READ FROM UNIT   11
 # DIS package for  MODFLOW-2005, generated by Flopy.
   29 LAYERS       108 ROWS        64 COLUMNS
    1 STRESS PERIOD(S) IN SIMULATION
 MODEL TIME UNIT IS DAYS
 MODEL LENGTH UNIT IS METERS
  Confining bed flag for each layer:
   0   0   0   0   0   0   0   0   0   0   0   0   0   0   0   0   0   0   0   0
   0   0   0   0   0   0   0   0   0



                               DELR
 READING ON UNIT   11 WITH FORMAT: (64E15.6)           



                               DELC
 READING ON UNIT   11 WITH FORMAT: (108E15.6)          

 TOP ELEVATION OF LAYER 1 =   2.50000    

   MODEL LAYER BOTTOM EL. =  -2.50000     FOR LAYER   1

   MODEL LAYER BOTTOM EL. =  -5.00000     FOR LAYER   2

   MODEL LAYER BOTTOM EL. =  -7.50000     FOR LAYER   3

   MODEL LAYER BOTTOM EL. =  -10.0000     FOR LAYER   4

   MODEL LAYER BOTTOM EL. =  -12.5000     FOR LAYER   5

   MODEL LAYER BOTTOM EL. =  -15.0000     FOR LAYER   6

   MODEL LAYER BOTTOM EL. =  -17.5000     FOR LAYER   7

   MODEL LAYER BOTTOM EL. =  -20.0000     FOR LAYER   8

   MODEL LAYER BOTTOM EL. =  -22.5000     FOR LAYER   9

   MODEL LAYER BOTTOM EL. =  -25.0000     FOR LAYER  10

   MODEL LAYER BOTTOM EL. =  -27.5000     FOR LAYER  11

   MODEL LAYER BOTTOM EL. =  -30.0000     FOR LAYER  12

   MODEL LAYER BOTTOM EL. =  -32.5000     FOR LAYER  13

   MODEL LAYER BOTTOM EL. =  -35.0000     FOR LAYER  14

   MODEL LAYER BOTTOM EL. =  -37.5000     FOR LAYER  15

   MODEL LAYER BOTTOM EL. =  -40.0000     FOR LAYER  16

   MODEL LAYER BOTTOM EL. =  -42.5000     FOR LAYER  17

   MODEL LAYER BOTTOM EL. =  -45.0000     FOR LAYER  18

   MODEL LAYER BOTTOM EL. =  -47.5000     FOR LAYER  19

   MODEL LAYER BOTTOM EL. =  -50.0000     FOR LAYER  20

   MODEL LAYER BOTTOM EL. =  -52.5000     FOR LAYER  21

   MODEL LAYER BOTTOM EL. =  -55.0000     FOR LAYER  22

   MODEL LAYER BOTTOM EL. =  -57.5000     FOR LAYER  23

   MODEL LAYER BOTTOM EL. =  -60.0000     FOR LAYER  24

   MODEL LAYER BOTTOM EL. =  -68.0000     FOR LAYER  25

   MODEL LAYER BOTTOM EL. =  -76.0000     FOR LAYER  26

   MODEL LAYER BOTTOM EL. =  -84.0000     FOR LAYER  27

   MODEL LAYER BOTTOM EL. =  -92.0000     FOR LAYER  28

   MODEL LAYER BOTTOM EL. =  -100.000     FOR LAYER  29


 STRESS PERIOD     LENGTH       TIME STEPS     MULTIPLIER FOR DELT    SS FLAG
 ----------------------------------------------------------------------------
        1         10950.00          1                    1.000         SS

 STEADY-STATE SIMULATION



 
 # BAS6 package for  MODFLOW-2005, generated by Flopy.                           
 THE FREE FORMAT OPTION HAS BEEN SELECTED



                     BOUNDARY ARRAY FOR LAYER   1
 READING ON UNIT   13 WITH FORMAT: (64I10)             



                     BOUNDARY ARRAY FOR LAYER   2
 READING ON UNIT   13 WITH FORMAT: (64I10)             



                     BOUNDARY ARRAY FOR LAYER   3
 READING ON UNIT   13 WITH FORMAT: (64I10)             



                     BOUNDARY ARRAY FOR LAYER   4
 READING ON UNIT   13 WITH FORMAT: (64I10)             



                     BOUNDARY ARRAY FOR LAYER   5
 READING ON UNIT   13 WITH FORMAT: (64I10)             



                     BOUNDARY ARRAY FOR LAYER   6
 READING ON UNIT   13 WITH FORMAT: (64I10)             



                     BOUNDARY ARRAY FOR LAYER   7
 READING ON UNIT   13 WITH FORMAT: (64I10)             



                     BOUNDARY ARRAY FOR LAYER   8
 READING ON UNIT   13 WITH FORMAT: (64I10)             



                     BOUNDARY ARRAY FOR LAYER   9
 READING ON UNIT   13 WITH FORMAT: (64I10)             



                     BOUNDARY ARRAY FOR LAYER  10
 READING ON UNIT   13 WITH FORMAT: (64I10)             



                     BOUNDARY ARRAY FOR LAYER  11
 READING ON UNIT   13 WITH FORMAT: (64I10)             



                     BOUNDARY ARRAY FOR LAYER  12
 READING ON UNIT   13 WITH FORMAT: (64I10)             



                     BOUNDARY ARRAY FOR LAYER  13
 READING ON UNIT   13 WITH FORMAT: (64I10)             



                     BOUNDARY ARRAY FOR LAYER  14
 READING ON UNIT   13 WITH FORMAT: (64I10)             



                     BOUNDARY ARRAY FOR LAYER  15
 READING ON UNIT   13 WITH FORMAT: (64I10)             



                     BOUNDARY ARRAY FOR LAYER  16
 READING ON UNIT   13 WITH FORMAT: (64I10)             



                     BOUNDARY ARRAY FOR LAYER  17
 READING ON UNIT   13 WITH FORMAT: (64I10)             



                     BOUNDARY ARRAY FOR LAYER  18
 READING ON UNIT   13 WITH FORMAT: (64I10)             



                     BOUNDARY ARRAY FOR LAYER  19
 READING ON UNIT   13 WITH FORMAT: (64I10)             



                     BOUNDARY ARRAY FOR LAYER  20
 READING ON UNIT   13 WITH FORMAT: (64I10)             



                     BOUNDARY ARRAY FOR LAYER  21
 READING ON UNIT   13 WITH FORMAT: (64I10)             



                     BOUNDARY ARRAY FOR LAYER  22
 READING ON UNIT   13 WITH FORMAT: (64I10)             



                     BOUNDARY ARRAY FOR LAYER  23
 READING ON UNIT   13 WITH FORMAT: (64I10)             



                     BOUNDARY ARRAY FOR LAYER  24
 READING ON UNIT   13 WITH FORMAT: (64I10)             



                     BOUNDARY ARRAY FOR LAYER  25
 READING ON UNIT   13 WITH FORMAT: (64I10)             



                     BOUNDARY ARRAY FOR LAYER  26
 READING ON UNIT   13 WITH FORMAT: (64I10)             



                     BOUNDARY ARRAY FOR LAYER  27
 READING ON UNIT   13 WITH FORMAT: (64I10)             



                     BOUNDARY ARRAY FOR LAYER  28
 READING ON UNIT   13 WITH FORMAT: (64I10)             



                     BOUNDARY ARRAY FOR LAYER  29
 READING ON UNIT   13 WITH FORMAT: (64I10)             

 AQUIFER HEAD WILL BE SET TO  -999.99     AT ALL NO-FLOW NODES (IBOUND=0).



                       INITIAL HEAD FOR LAYER   1
 READING ON UNIT   13 WITH FORMAT: (64E15.6)           



                       INITIAL HEAD FOR LAYER   2
 READING ON UNIT   13 WITH FORMAT: (64E15.6)           



                       INITIAL HEAD FOR LAYER   3
 READING ON UNIT   13 WITH FORMAT: (64E15.6)           



                       INITIAL HEAD FOR LAYER   4
 READING ON UNIT   13 WITH FORMAT: (64E15.6)           



                       INITIAL HEAD FOR LAYER   5
 READING ON UNIT   13 WITH FORMAT: (64E15.6)           



                       INITIAL HEAD FOR LAYER   6
 READING ON UNIT   13 WITH FORMAT: (64E15.6)           



                       INITIAL HEAD FOR LAYER   7
 READING ON UNIT   13 WITH FORMAT: (64E15.6)           



                       INITIAL HEAD FOR LAYER   8
 READING ON UNIT   13 WITH FORMAT: (64E15.6)           



                       INITIAL HEAD FOR LAYER   9
 READING ON UNIT   13 WITH FORMAT: (64E15.6)           



                       INITIAL HEAD FOR LAYER  10
 READING ON UNIT   13 WITH FORMAT: (64E15.6)           



                       INITIAL HEAD FOR LAYER  11
 READING ON UNIT   13 WITH FORMAT: (64E15.6)           



                       INITIAL HEAD FOR LAYER  12
 READING ON UNIT   13 WITH FORMAT: (64E15.6)           



                       INITIAL HEAD FOR LAYER  13
 READING ON UNIT   13 WITH FORMAT: (64E15.6)           



                       INITIAL HEAD FOR LAYER  14
 READING ON UNIT   13 WITH FORMAT: (64E15.6)           



                       INITIAL HEAD FOR LAYER  15
 READING ON UNIT   13 WITH FORMAT: (64E15.6)           



                       INITIAL HEAD FOR LAYER  16
 READING ON UNIT   13 WITH FORMAT: (64E15.6)           



                       INITIAL HEAD FOR LAYER  17
 READING ON UNIT   13 WITH FORMAT: (64E15.6)           



                       INITIAL HEAD FOR LAYER  18
 READING ON UNIT   13 WITH FORMAT: (64E15.6)           



                       INITIAL HEAD FOR LAYER  19
 READING ON UNIT   13 WITH FORMAT: (64E15.6)           



                       INITIAL HEAD FOR LAYER  20
 READING ON UNIT   13 WITH FORMAT: (64E15.6)           



                       INITIAL HEAD FOR LAYER  21
 READING ON UNIT   13 WITH FORMAT: (64E15.6)           



                       INITIAL HEAD FOR LAYER  22
 READING ON UNIT   13 WITH FORMAT: (64E15.6)           



                       INITIAL HEAD FOR LAYER  23
 READING ON UNIT   13 WITH FORMAT: (64E15.6)           



                       INITIAL HEAD FOR LAYER  24
 READING ON UNIT   13 WITH FORMAT: (64E15.6)           



                       INITIAL HEAD FOR LAYER  25
 READING ON UNIT   13 WITH FORMAT: (64E15.6)           



                       INITIAL HEAD FOR LAYER  26
 READING ON UNIT   13 WITH FORMAT: (64E15.6)           



                       INITIAL HEAD FOR LAYER  27
 READING ON UNIT   13 WITH FORMAT: (64E15.6)           



                       INITIAL HEAD FOR LAYER  28
 READING ON UNIT   13 WITH FORMAT: (64E15.6)           



                       INITIAL HEAD FOR LAYER  29
 READING ON UNIT   13 WITH FORMAT: (64E15.6)           
 # OC package for  MODFLOW-2005, generated by Flopy.

 OUTPUT CONTROL IS SPECIFIED ONLY AT TIME STEPS FOR WHICH OUTPUT IS DESIRED
 COMPACT CELL-BY-CELL BUDGET FILES WILL BE WRITTEN
 AUXILIARY DATA WILL BE SAVED IN CELL-BY-CELL BUDGET FILES
 HEAD PRINT FORMAT CODE IS   0    DRAWDOWN PRINT FORMAT CODE IS   0
 HEADS WILL BE SAVED ON UNIT   51    DRAWDOWNS WILL BE SAVED ON UNIT    0

 LPF -- LAYER-PROPERTY FLOW PACKAGE, VERSION 7, 5/2/2005
         INPUT READ FROM UNIT   15
 # LPF package for  MODFLOW-2005, generated by Flopy.
 CELL-BY-CELL FLOWS WILL BE SAVED ON UNIT 1001
 HEAD AT CELLS THAT CONVERT TO DRY= -1.00000E+30
 No named parameters

   LAYER FLAGS:
 LAYER       LAYTYP        LAYAVG         CHANI        LAYVKA        LAYWET
 ---------------------------------------------------------------------------
    1             0             0     1.000E+00             0             0
    2             0             0     1.000E+00             0             0
    3             0             0     1.000E+00             0             0
    4             0             0     1.000E+00             0             0
    5             0             0     1.000E+00             0             0
    6             0             0     1.000E+00             0             0
    7             0             0     1.000E+00             0             0
    8             0             0     1.000E+00             0             0
    9             0             0     1.000E+00             0             0
   10             0             0     1.000E+00             0             0
   11             0             0     1.000E+00             0             0
   12             0             0     1.000E+00             0             0
   13             0             0     1.000E+00             0             0
   14             0             0     1.000E+00             0             0
   15             0             0     1.000E+00             0             0
   16             0             0     1.000E+00             0             0
   17             0             0     1.000E+00             0             0
   18             0             0     1.000E+00             0             0
   19             0             0     1.000E+00             0             0
   20             0             0     1.000E+00             0             0
   21             0             0     1.000E+00             0             0
   22             0             0     1.000E+00             0             0
   23             0             0     1.000E+00             0             0
   24             0             0     1.000E+00             0             0
   25             0             0     1.000E+00             0             0
   26             0             0     1.000E+00             0             0
   27             0             0     1.000E+00             0             0
   28             0             0     1.000E+00             0             0
   29             0             0     1.000E+00             0             0

   INTERPRETATION OF LAYER FLAGS:
                        INTERBLOCK     HORIZONTAL    DATA IN
         LAYER TYPE   TRANSMISSIVITY   ANISOTROPY   ARRAY VKA   WETTABILITY
 LAYER      (LAYTYP)      (LAYAVG)       (CHANI)      (LAYVKA)      (LAYWET)
 ---------------------------------------------------------------------------
    1      CONFINED      HARMONIC     1.000E+00    VERTICAL K  NON-WETTABLE
    2      CONFINED      HARMONIC     1.000E+00    VERTICAL K  NON-WETTABLE
    3      CONFINED      HARMONIC     1.000E+00    VERTICAL K  NON-WETTABLE
    4      CONFINED      HARMONIC     1.000E+00    VERTICAL K  NON-WETTABLE
    5      CONFINED      HARMONIC     1.000E+00    VERTICAL K  NON-WETTABLE
    6      CONFINED      HARMONIC     1.000E+00    VERTICAL K  NON-WETTABLE
    7      CONFINED      HARMONIC     1.000E+00    VERTICAL K  NON-WETTABLE
    8      CONFINED      HARMONIC     1.000E+00    VERTICAL K  NON-WETTABLE
    9      CONFINED      HARMONIC     1.000E+00    VERTICAL K  NON-WETTABLE
   10      CONFINED      HARMONIC     1.000E+00    VERTICAL K  NON-WETTABLE
   11      CONFINED      HARMONIC     1.000E+00    VERTICAL K  NON-WETTABLE
   12      CONFINED      HARMONIC     1.000E+00    VERTICAL K  NON-WETTABLE
   13      CONFINED      HARMONIC     1.000E+00    VERTICAL K  NON-WETTABLE
   14      CONFINED      HARMONIC     1.000E+00    VERTICAL K  NON-WETTABLE
   15      CONFINED      HARMONIC     1.000E+00    VERTICAL K  NON-WETTABLE
   16      CONFINED      HARMONIC     1.000E+00    VERTICAL K  NON-WETTABLE
   17      CONFINED      HARMONIC     1.000E+00    VERTICAL K  NON-WETTABLE
   18      CONFINED      HARMONIC     1.000E+00    VERTICAL K  NON-WETTABLE
   19      CONFINED      HARMONIC     1.000E+00    VERTICAL K  NON-WETTABLE
   20      CONFINED      HARMONIC     1.000E+00    VERTICAL K  NON-WETTABLE
   21      CONFINED      HARMONIC     1.000E+00    VERTICAL K  NON-WETTABLE
   22      CONFINED      HARMONIC     1.000E+00    VERTICAL K  NON-WETTABLE
   23      CONFINED      HARMONIC     1.000E+00    VERTICAL K  NON-WETTABLE
   24      CONFINED      HARMONIC     1.000E+00    VERTICAL K  NON-WETTABLE
   25      CONFINED      HARMONIC     1.000E+00    VERTICAL K  NON-WETTABLE
   26      CONFINED      HARMONIC     1.000E+00    VERTICAL K  NON-WETTABLE
   27      CONFINED      HARMONIC     1.000E+00    VERTICAL K  NON-WETTABLE
   28      CONFINED      HARMONIC     1.000E+00    VERTICAL K  NON-WETTABLE
   29      CONFINED      HARMONIC     1.000E+00    VERTICAL K  NON-WETTABLE

 WETTING CAPABILITY IS NOT ACTIVE IN ANY LAYER



              HYD. COND. ALONG ROWS FOR LAYER   1
 READING ON UNIT   15 WITH FORMAT: (64E15.6)           



                VERTICAL HYD. COND. FOR LAYER   1
 READING ON UNIT   15 WITH FORMAT: (64E15.6)           



              HYD. COND. ALONG ROWS FOR LAYER   2
 READING ON UNIT   15 WITH FORMAT: (64E15.6)           



                VERTICAL HYD. COND. FOR LAYER   2
 READING ON UNIT   15 WITH FORMAT: (64E15.6)           



              HYD. COND. ALONG ROWS FOR LAYER   3
 READING ON UNIT   15 WITH FORMAT: (64E15.6)           



                VERTICAL HYD. COND. FOR LAYER   3
 READING ON UNIT   15 WITH FORMAT: (64E15.6)           



              HYD. COND. ALONG ROWS FOR LAYER   4
 READING ON UNIT   15 WITH FORMAT: (64E15.6)           



                VERTICAL HYD. COND. FOR LAYER   4
 READING ON UNIT   15 WITH FORMAT: (64E15.6)           



              HYD. COND. ALONG ROWS FOR LAYER   5
 READING ON UNIT   15 WITH FORMAT: (64E15.6)           



                VERTICAL HYD. COND. FOR LAYER   5
 READING ON UNIT   15 WITH FORMAT: (64E15.6)           



              HYD. COND. ALONG ROWS FOR LAYER   6
 READING ON UNIT   15 WITH FORMAT: (64E15.6)           



                VERTICAL HYD. COND. FOR LAYER   6
 READING ON UNIT   15 WITH FORMAT: (64E15.6)           



              HYD. COND. ALONG ROWS FOR LAYER   7
 READING ON UNIT   15 WITH FORMAT: (64E15.6)           



                VERTICAL HYD. COND. FOR LAYER   7
 READING ON UNIT   15 WITH FORMAT: (64E15.6)           



              HYD. COND. ALONG ROWS FOR LAYER   8
 READING ON UNIT   15 WITH FORMAT: (64E15.6)           



                VERTICAL HYD. COND. FOR LAYER   8
 READING ON UNIT   15 WITH FORMAT: (64E15.6)           



              HYD. COND. ALONG ROWS FOR LAYER   9
 READING ON UNIT   15 WITH FORMAT: (64E15.6)           



                VERTICAL HYD. COND. FOR LAYER   9
 READING ON UNIT   15 WITH FORMAT: (64E15.6)           



              HYD. COND. ALONG ROWS FOR LAYER  10
 READING ON UNIT   15 WITH FORMAT: (64E15.6)           



                VERTICAL HYD. COND. FOR LAYER  10
 READING ON UNIT   15 WITH FORMAT: (64E15.6)           



              HYD. COND. ALONG ROWS FOR LAYER  11
 READING ON UNIT   15 WITH FORMAT: (64E15.6)           



                VERTICAL HYD. COND. FOR LAYER  11
 READING ON UNIT   15 WITH FORMAT: (64E15.6)           



              HYD. COND. ALONG ROWS FOR LAYER  12
 READING ON UNIT   15 WITH FORMAT: (64E15.6)           



                VERTICAL HYD. COND. FOR LAYER  12
 READING ON UNIT   15 WITH FORMAT: (64E15.6)           



              HYD. COND. ALONG ROWS FOR LAYER  13
 READING ON UNIT   15 WITH FORMAT: (64E15.6)           



                VERTICAL HYD. COND. FOR LAYER  13
 READING ON UNIT   15 WITH FORMAT: (64E15.6)           



              HYD. COND. ALONG ROWS FOR LAYER  14
 READING ON UNIT   15 WITH FORMAT: (64E15.6)           



                VERTICAL HYD. COND. FOR LAYER  14
 READING ON UNIT   15 WITH FORMAT: (64E15.6)           



              HYD. COND. ALONG ROWS FOR LAYER  15
 READING ON UNIT   15 WITH FORMAT: (64E15.6)           



                VERTICAL HYD. COND. FOR LAYER  15
 READING ON UNIT   15 WITH FORMAT: (64E15.6)           



              HYD. COND. ALONG ROWS FOR LAYER  16
 READING ON UNIT   15 WITH FORMAT: (64E15.6)           



                VERTICAL HYD. COND. FOR LAYER  16
 READING ON UNIT   15 WITH FORMAT: (64E15.6)           



              HYD. COND. ALONG ROWS FOR LAYER  17
 READING ON UNIT   15 WITH FORMAT: (64E15.6)           



                VERTICAL HYD. COND. FOR LAYER  17
 READING ON UNIT   15 WITH FORMAT: (64E15.6)           



              HYD. COND. ALONG ROWS FOR LAYER  18
 READING ON UNIT   15 WITH FORMAT: (64E15.6)           



                VERTICAL HYD. COND. FOR LAYER  18
 READING ON UNIT   15 WITH FORMAT: (64E15.6)           



              HYD. COND. ALONG ROWS FOR LAYER  19
 READING ON UNIT   15 WITH FORMAT: (64E15.6)           



                VERTICAL HYD. COND. FOR LAYER  19
 READING ON UNIT   15 WITH FORMAT: (64E15.6)           



              HYD. COND. ALONG ROWS FOR LAYER  20
 READING ON UNIT   15 WITH FORMAT: (64E15.6)           



                VERTICAL HYD. COND. FOR LAYER  20
 READING ON UNIT   15 WITH FORMAT: (64E15.6)           



              HYD. COND. ALONG ROWS FOR LAYER  21
 READING ON UNIT   15 WITH FORMAT: (64E15.6)           



                VERTICAL HYD. COND. FOR LAYER  21
 READING ON UNIT   15 WITH FORMAT: (64E15.6)           



              HYD. COND. ALONG ROWS FOR LAYER  22
 READING ON UNIT   15 WITH FORMAT: (64E15.6)           



                VERTICAL HYD. COND. FOR LAYER  22
 READING ON UNIT   15 WITH FORMAT: (64E15.6)           



              HYD. COND. ALONG ROWS FOR LAYER  23
 READING ON UNIT   15 WITH FORMAT: (64E15.6)           



                VERTICAL HYD. COND. FOR LAYER  23
 READING ON UNIT   15 WITH FORMAT: (64E15.6)           



              HYD. COND. ALONG ROWS FOR LAYER  24
 READING ON UNIT   15 WITH FORMAT: (64E15.6)           



                VERTICAL HYD. COND. FOR LAYER  24
 READING ON UNIT   15 WITH FORMAT: (64E15.6)           



              HYD. COND. ALONG ROWS FOR LAYER  25
 READING ON UNIT   15 WITH FORMAT: (64E15.6)           



                VERTICAL HYD. COND. FOR LAYER  25
 READING ON UNIT   15 WITH FORMAT: (64E15.6)           



              HYD. COND. ALONG ROWS FOR LAYER  26
 READING ON UNIT   15 WITH FORMAT: (64E15.6)           



                VERTICAL HYD. COND. FOR LAYER  26
 READING ON UNIT   15 WITH FORMAT: (64E15.6)           



              HYD. COND. ALONG ROWS FOR LAYER  27
 READING ON UNIT   15 WITH FORMAT: (64E15.6)           



                VERTICAL HYD. COND. FOR LAYER  27
 READING ON UNIT   15 WITH FORMAT: (64E15.6)           



              HYD. COND. ALONG ROWS FOR LAYER  28
 READING ON UNIT   15 WITH FORMAT: (64E15.6)           



                VERTICAL HYD. COND. FOR LAYER  28
 READING ON UNIT   15 WITH FORMAT: (64E15.6)           



              HYD. COND. ALONG ROWS FOR LAYER  29
 READING ON UNIT   15 WITH FORMAT: (64E15.6)           



                VERTICAL HYD. COND. FOR LAYER  29
 READING ON UNIT   15 WITH FORMAT: (64E15.6)           

 WEL -- WELL PACKAGE, VERSION 7, 5/2/2005 INPUT READ FROM UNIT   20
 # WEL package for  MODFLOW-2005, generated by Flopy.
 No named parameters
 MAXIMUM OF     30 ACTIVE WELLS AT ONE TIME
 CELL-BY-CELL FLOWS WILL BE SAVED ON UNIT 1001


     0 Well parameters

 RCH -- RECHARGE PACKAGE, VERSION 7, 5/2/2005 INPUT READ FROM UNIT   19
 # RCH package for  MODFLOW-2005, generated by Flopy.
 No named parameters
 OPTION 3 -- RECHARGE TO HIGHEST ACTIVE NODE IN EACH VERTICAL COLUMN
 CELL-BY-CELL FLOWS WILL BE SAVED ON UNIT 1001


     0 Recharge parameters

 HFB -- HORIZONTAL-FLOW BARRIER PACKAGE, VERSION 7, 5/2/2005.
   INPUT READ FROM UNIT   29
 # HFB6 package for  MODFLOW-2005, generated by Flopy.
     0 PARAMETERS DEFINE A MAXIMUM OF      0 HORIZONTAL FLOW BARRIERS
   3040 HORIZONTAL FLOW BARRIERS NOT DEFINED BY PARAMETERS


     0 HFB parameters

   3040 BARRIERS NOT DEFINED BY PARAMETERS

 BARRIER  LAYER  IROW1  ICOL1  IROW2  ICOL2    HYDCHR
 -------------------------------------------------------
      1      1      29     26     29     27   1.0000E-03
      2      2      29     26     29     27   1.0000E-03
      3      3      29     26     29     27   1.0000E-03
      4      4      29     26     29     27   1.0000E-03
      5      5      29     26     29     27   1.0000E-03
      6      6      29     26     29     27   1.0000E-03
      7      7      29     26     29     27   1.0000E-03
      8      8      29     26     29     27   1.0000E-03
      9      9      29     26     29     27   1.0000E-03
     10     10      29     26     29     27   1.0000E-03
     11     11      29     26     29     27   1.0000E-03
     12     12      29     26     29     27   1.0000E-03
     13     13      29     26     29     27   1.0000E-03
     14     14      29     26     29     27   1.0000E-03
     15     15      29     26     29     27   1.0000E-03
     16     16      29     26     29     27   1.0000E-03
     17     17      29     26     29     27   1.0000E-03
     18     18      29     26     29     27   1.0000E-03
     19     19      29     26     29     27   1.0000E-03
     20     20      29     26     29     27   1.0000E-03
     21      1      28     27     29     27   1.0000E-03
     22      2      28     27     29     27   1.0000E-03
     23      3      28     27     29     27   1.0000E-03
     24      4      28     27     29     27   1.0000E-03
     25      5      28     27     29     27   1.0000E-03
     26      6      28     27     29     27   1.0000E-03
     27      7      28     27     29     27   1.0000E-03
     28      8      28     27     29     27   1.0000E-03
     29      9      28     27     29     27   1.0000E-03
     30     10      28     27     29     27   1.0000E-03
     31     11      28     27     29     27   1.0000E-03
     32     12      28     27     29     27   1.0000E-03
     33     13      28     27     29     27   1.0000E-03
     34     14      28     27     29     27   1.0000E-03
     35     15      28     27     29     27   1.0000E-03
     36     16      28     27     29     27   1.0000E-03
     37     17      28     27     29     27   1.0000E-03
     38     18      28     27     29     27   1.0000E-03
     39     19      28     27     29     27   1.0000E-03
     40     20      28     27     29     27   1.0000E-03
     41      1      28     28     29     28   1.0000E-03
     42      2      28     28     29     28   1.0000E-03
     43      3      28     28     29     28   1.0000E-03
     44      4      28     28     29     28   1.0000E-03
     45      5      28     28     29     28   1.0000E-03
     46      6      28     28     29     28   1.0000E-03
     47      7      28     28     29     28   1.0000E-03
     48      8      28     28     29     28   1.0000E-03
     49      9      28     28     29     28   1.0000E-03
     50     10      28     28     29     28   1.0000E-03
     51     11      28     28     29     28   1.0000E-03
     52     12      28     28     29     28   1.0000E-03
     53     13      28     28     29     28   1.0000E-03
     54     14      28     28     29     28   1.0000E-03
     55     15      28     28     29     28   1.0000E-03
     56     16      28     28     29     28   1.0000E-03
     57     17      28     28     29     28   1.0000E-03
     58     18      28     28     29     28   1.0000E-03
     59     19      28     28     29     28   1.0000E-03
     60     20      28     28     29     28   1.0000E-03
     61      1      29     29     29     30   1.0000E-03
     62      2      29     29     29     30   1.0000E-03
     63      3      29     29     29     30   1.0000E-03
     64      4      29     29     29     30   1.0000E-03
     65      5      29     29     29     30   1.0000E-03
     66      6      29     29     29     30   1.0000E-03
     67      7      29     29     29     30   1.0000E-03
     68      8      29     29     29     30   1.0000E-03
     69      9      29     29     29     30   1.0000E-03
     70     10      29     29     29     30   1.0000E-03
     71     11      29     29     29     30   1.0000E-03
     72     12      29     29     29     30   1.0000E-03
     73     13      29     29     29     30   1.0000E-03
     74     14      29     29     29     30   1.0000E-03
     75     15      29     29     29     30   1.0000E-03
     76     16      29     29     29     30   1.0000E-03
     77     17      29     29     29     30   1.0000E-03
     78     18      29     29     29     30   1.0000E-03
     79     19      29     29     29     30   1.0000E-03
     80     20      29     29     29     30   1.0000E-03
     81      1      28     29     29     29   1.0000E-03
     82      2      28     29     29     29   1.0000E-03
     83      3      28     29     29     29   1.0000E-03
     84      4      28     29     29     29   1.0000E-03
     85      5      28     29     29     29   1.0000E-03
     86      6      28     29     29     29   1.0000E-03
     87      7      28     29     29     29   1.0000E-03
     88      8      28     29     29     29   1.0000E-03
     89      9      28     29     29     29   1.0000E-03
     90     10      28     29     29     29   1.0000E-03
     91     11      28     29     29     29   1.0000E-03
     92     12      28     29     29     29   1.0000E-03
     93     13      28     29     29     29   1.0000E-03
     94     14      28     29     29     29   1.0000E-03
     95     15      28     29     29     29   1.0000E-03
     96     16      28     29     29     29   1.0000E-03
     97     17      28     29     29     29   1.0000E-03
     98     18      28     29     29     29   1.0000E-03
     99     19      28     29     29     29   1.0000E-03
    100     20      28     29     29     29   1.0000E-03
    101      1      29     33     29     34   1.0000E-03
    102      2      29     33     29     34   1.0000E-03
    103      3      29     33     29     34   1.0000E-03
    104      4      29     33     29     34   1.0000E-03
    105      5      29     33     29     34   1.0000E-03
    106      6      29     33     29     34   1.0000E-03
    107      7      29     33     29     34   1.0000E-03
    108      8      29     33     29     34   1.0000E-03
    109      9      29     33     29     34   1.0000E-03
    110     10      29     33     29     34   1.0000E-03
    111     11      29     33     29     34   1.0000E-03
    112     12      29     33     29     34   1.0000E-03
    113     13      29     33     29     34   1.0000E-03
    114     14      29     33     29     34   1.0000E-03
    115     15      29     33     29     34   1.0000E-03
    116     16      29     33     29     34   1.0000E-03
    117     17      29     33     29     34   1.0000E-03
    118     18      29     33     29     34   1.0000E-03
    119     19      29     33     29     34   1.0000E-03
    120     20      29     33     29     34   1.0000E-03
    121      1      28     34     29     34   1.0000E-03
    122      2      28     34     29     34   1.0000E-03
    123      3      28     34     29     34   1.0000E-03
    124      4      28     34     29     34   1.0000E-03
    125      5      28     34     29     34   1.0000E-03
    126      6      28     34     29     34   1.0000E-03
    127      7      28     34     29     34   1.0000E-03
    128      8      28     34     29     34   1.0000E-03
    129      9      28     34     29     34   1.0000E-03
    130     10      28     34     29     34   1.0000E-03
    131     11      28     34     29     34   1.0000E-03
    132     12      28     34     29     34   1.0000E-03
    133     13      28     34     29     34   1.0000E-03
    134     14      28     34     29     34   1.0000E-03
    135     15      28     34     29     34   1.0000E-03
    136     16      28     34     29     34   1.0000E-03
    137     17      28     34     29     34   1.0000E-03
    138     18      28     34     29     34   1.0000E-03
    139     19      28     34     29     34   1.0000E-03
    140     20      28     34     29     34   1.0000E-03
    141      1      28     35     29     35   1.0000E-03
    142      2      28     35     29     35   1.0000E-03
    143      3      28     35     29     35   1.0000E-03
    144      4      28     35     29     35   1.0000E-03
    145      5      28     35     29     35   1.0000E-03
    146      6      28     35     29     35   1.0000E-03
    147      7      28     35     29     35   1.0000E-03
    148      8      28     35     29     35   1.0000E-03
    149      9      28     35     29     35   1.0000E-03
    150     10      28     35     29     35   1.0000E-03
    151     11      28     35     29     35   1.0000E-03
    152     12      28     35     29     35   1.0000E-03
    153     13      28     35     29     35   1.0000E-03
    154     14      28     35     29     35   1.0000E-03
    155     15      28     35     29     35   1.0000E-03
    156     16      28     35     29     35   1.0000E-03
    157     17      28     35     29     35   1.0000E-03
    158     18      28     35     29     35   1.0000E-03
    159     19      28     35     29     35   1.0000E-03
    160     20      28     35     29     35   1.0000E-03
    161      1      29     36     29     37   1.0000E-03
    162      2      29     36     29     37   1.0000E-03
    163      3      29     36     29     37   1.0000E-03
    164      4      29     36     29     37   1.0000E-03
    165      5      29     36     29     37   1.0000E-03
    166      6      29     36     29     37   1.0000E-03
    167      7      29     36     29     37   1.0000E-03
    168      8      29     36     29     37   1.0000E-03
    169      9      29     36     29     37   1.0000E-03
    170     10      29     36     29     37   1.0000E-03
    171     11      29     36     29     37   1.0000E-03
    172     12      29     36     29     37   1.0000E-03
    173     13      29     36     29     37   1.0000E-03
    174     14      29     36     29     37   1.0000E-03
    175     15      29     36     29     37   1.0000E-03
    176     16      29     36     29     37   1.0000E-03
    177     17      29     36     29     37   1.0000E-03
    178     18      29     36     29     37   1.0000E-03
    179     19      29     36     29     37   1.0000E-03
    180     20      29     36     29     37   1.0000E-03
    181      1      28     36     29     36   1.0000E-03
    182      2      28     36     29     36   1.0000E-03
    183      3      28     36     29     36   1.0000E-03
    184      4      28     36     29     36   1.0000E-03
    185      5      28     36     29     36   1.0000E-03
    186      6      28     36     29     36   1.0000E-03
    187      7      28     36     29     36   1.0000E-03
    188      8      28     36     29     36   1.0000E-03
    189      9      28     36     29     36   1.0000E-03
    190     10      28     36     29     36   1.0000E-03
    191     11      28     36     29     36   1.0000E-03
    192     12      28     36     29     36   1.0000E-03
    193     13      28     36     29     36   1.0000E-03
    194     14      28     36     29     36   1.0000E-03
    195     15      28     36     29     36   1.0000E-03
    196     16      28     36     29     36   1.0000E-03
    197     17      28     36     29     36   1.0000E-03
    198     18      28     36     29     36   1.0000E-03
    199     19      28     36     29     36   1.0000E-03
    200     20      28     36     29     36   1.0000E-03
    201      1      30     26     30     27   1.0000E-03
    202      2      30     26     30     27   1.0000E-03
    203      3      30     26     30     27   1.0000E-03
    204      4      30     26     30     27   1.0000E-03
    205      5      30     26     30     27   1.0000E-03
    206      6      30     26     30     27   1.0000E-03
    207      7      30     26     30     27   1.0000E-03
    208      8      30     26     30     27   1.0000E-03
    209      9      30     26     30     27   1.0000E-03
    210     10      30     26     30     27   1.0000E-03
    211     11      30     26     30     27   1.0000E-03
    212     12      30     26     30     27   1.0000E-03
    213     13      30     26     30     27   1.0000E-03
    214     14      30     26     30     27   1.0000E-03
    215     15      30     26     30     27   1.0000E-03
    216     16      30     26     30     27   1.0000E-03
    217     17      30     26     30     27   1.0000E-03
    218     18      30     26     30     27   1.0000E-03
    219     19      30     26     30     27   1.0000E-03
    220     20      30     26     30     27   1.0000E-03
    221      1      29     30     30     30   1.0000E-03
    222      2      29     30     30     30   1.0000E-03
    223      3      29     30     30     30   1.0000E-03
    224      4      29     30     30     30   1.0000E-03
    225      5      29     30     30     30   1.0000E-03
    226      6      29     30     30     30   1.0000E-03
    227      7      29     30     30     30   1.0000E-03
    228      8      29     30     30     30   1.0000E-03
    229      9      29     30     30     30   1.0000E-03
    230     10      29     30     30     30   1.0000E-03
    231     11      29     30     30     30   1.0000E-03
    232     12      29     30     30     30   1.0000E-03
    233     13      29     30     30     30   1.0000E-03
    234     14      29     30     30     30   1.0000E-03
    235     15      29     30     30     30   1.0000E-03
    236     16      29     30     30     30   1.0000E-03
    237     17      29     30     30     30   1.0000E-03
    238     18      29     30     30     30   1.0000E-03
    239     19      29     30     30     30   1.0000E-03
    240     20      29     30     30     30   1.0000E-03
    241      1      29     31     30     31   1.0000E-03
    242      2      29     31     30     31   1.0000E-03
    243      3      29     31     30     31   1.0000E-03
    244      4      29     31     30     31   1.0000E-03
    245      5      29     31     30     31   1.0000E-03
    246      6      29     31     30     31   1.0000E-03
    247      7      29     31     30     31   1.0000E-03
    248      8      29     31     30     31   1.0000E-03
    249      9      29     31     30     31   1.0000E-03
    250     10      29     31     30     31   1.0000E-03
    251     11      29     31     30     31   1.0000E-03
    252     12      29     31     30     31   1.0000E-03
    253     13      29     31     30     31   1.0000E-03
    254     14      29     31     30     31   1.0000E-03
    255     15      29     31     30     31   1.0000E-03
    256     16      29     31     30     31   1.0000E-03
    257     17      29     31     30     31   1.0000E-03
    258     18      29     31     30     31   1.0000E-03
    259     19      29     31     30     31   1.0000E-03
    260     20      29     31     30     31   1.0000E-03
    261      1      29     32     30     32   1.0000E-03
    262      2      29     32     30     32   1.0000E-03
    263      3      29     32     30     32   1.0000E-03
    264      4      29     32     30     32   1.0000E-03
    265      5      29     32     30     32   1.0000E-03
    266      6      29     32     30     32   1.0000E-03
    267      7      29     32     30     32   1.0000E-03
    268      8      29     32     30     32   1.0000E-03
    269      9      29     32     30     32   1.0000E-03
    270     10      29     32     30     32   1.0000E-03
    271     11      29     32     30     32   1.0000E-03
    272     12      29     32     30     32   1.0000E-03
    273     13      29     32     30     32   1.0000E-03
    274     14      29     32     30     32   1.0000E-03
    275     15      29     32     30     32   1.0000E-03
    276     16      29     32     30     32   1.0000E-03
    277     17      29     32     30     32   1.0000E-03
    278     18      29     32     30     32   1.0000E-03
    279     19      29     32     30     32   1.0000E-03
    280     20      29     32     30     32   1.0000E-03
    281      1      29     33     30     33   1.0000E-03
    282      2      29     33     30     33   1.0000E-03
    283      3      29     33     30     33   1.0000E-03
    284      4      29     33     30     33   1.0000E-03
    285      5      29     33     30     33   1.0000E-03
    286      6      29     33     30     33   1.0000E-03
    287      7      29     33     30     33   1.0000E-03
    288      8      29     33     30     33   1.0000E-03
    289      9      29     33     30     33   1.0000E-03
    290     10      29     33     30     33   1.0000E-03
    291     11      29     33     30     33   1.0000E-03
    292     12      29     33     30     33   1.0000E-03
    293     13      29     33     30     33   1.0000E-03
    294     14      29     33     30     33   1.0000E-03
    295     15      29     33     30     33   1.0000E-03
    296     16      29     33     30     33   1.0000E-03
    297     17      29     33     30     33   1.0000E-03
    298     18      29     33     30     33   1.0000E-03
    299     19      29     33     30     33   1.0000E-03
    300     20      29     33     30     33   1.0000E-03
    301      1      30     37     30     38   1.0000E-03
    302      2      30     37     30     38   1.0000E-03
    303      3      30     37     30     38   1.0000E-03
    304      4      30     37     30     38   1.0000E-03
    305      5      30     37     30     38   1.0000E-03
    306      6      30     37     30     38   1.0000E-03
    307      7      30     37     30     38   1.0000E-03
    308      8      30     37     30     38   1.0000E-03
    309      9      30     37     30     38   1.0000E-03
    310     10      30     37     30     38   1.0000E-03
    311     11      30     37     30     38   1.0000E-03
    312     12      30     37     30     38   1.0000E-03
    313     13      30     37     30     38   1.0000E-03
    314     14      30     37     30     38   1.0000E-03
    315     15      30     37     30     38   1.0000E-03
    316     16      30     37     30     38   1.0000E-03
    317     17      30     37     30     38   1.0000E-03
    318     18      30     37     30     38   1.0000E-03
    319     19      30     37     30     38   1.0000E-03
    320     20      30     37     30     38   1.0000E-03
    321      1      29     37     30     37   1.0000E-03
    322      2      29     37     30     37   1.0000E-03
    323      3      29     37     30     37   1.0000E-03
    324      4      29     37     30     37   1.0000E-03
    325      5      29     37     30     37   1.0000E-03
    326      6      29     37     30     37   1.0000E-03
    327      7      29     37     30     37   1.0000E-03
    328      8      29     37     30     37   1.0000E-03
    329      9      29     37     30     37   1.0000E-03
    330     10      29     37     30     37   1.0000E-03
    331     11      29     37     30     37   1.0000E-03
    332     12      29     37     30     37   1.0000E-03
    333     13      29     37     30     37   1.0000E-03
    334     14      29     37     30     37   1.0000E-03
    335     15      29     37     30     37   1.0000E-03
    336     16      29     37     30     37   1.0000E-03
    337     17      29     37     30     37   1.0000E-03
    338     18      29     37     30     37   1.0000E-03
    339     19      29     37     30     37   1.0000E-03
    340     20      29     37     30     37   1.0000E-03
    341      1      31     25     31     26   1.0000E-03
    342      2      31     25     31     26   1.0000E-03
    343      3      31     25     31     26   1.0000E-03
    344      4      31     25     31     26   1.0000E-03
    345      5      31     25     31     26   1.0000E-03
    346      6      31     25     31     26   1.0000E-03
    347      7      31     25     31     26   1.0000E-03
    348      8      31     25     31     26   1.0000E-03
    349      9      31     25     31     26   1.0000E-03
    350     10      31     25     31     26   1.0000E-03
    351     11      31     25     31     26   1.0000E-03
    352     12      31     25     31     26   1.0000E-03
    353     13      31     25     31     26   1.0000E-03
    354     14      31     25     31     26   1.0000E-03
    355     15      31     25     31     26   1.0000E-03
    356     16      31     25     31     26   1.0000E-03
    357     17      31     25     31     26   1.0000E-03
    358     18      31     25     31     26   1.0000E-03
    359     19      31     25     31     26   1.0000E-03
    360     20      31     25     31     26   1.0000E-03
    361      1      30     26     31     26   1.0000E-03
    362      2      30     26     31     26   1.0000E-03
    363      3      30     26     31     26   1.0000E-03
    364      4      30     26     31     26   1.0000E-03
    365      5      30     26     31     26   1.0000E-03
    366      6      30     26     31     26   1.0000E-03
    367      7      30     26     31     26   1.0000E-03
    368      8      30     26     31     26   1.0000E-03
    369      9      30     26     31     26   1.0000E-03
    370     10      30     26     31     26   1.0000E-03
    371     11      30     26     31     26   1.0000E-03
    372     12      30     26     31     26   1.0000E-03
    373     13      30     26     31     26   1.0000E-03
    374     14      30     26     31     26   1.0000E-03
    375     15      30     26     31     26   1.0000E-03
    376     16      30     26     31     26   1.0000E-03
    377     17      30     26     31     26   1.0000E-03
    378     18      30     26     31     26   1.0000E-03
    379     19      30     26     31     26   1.0000E-03
    380     20      30     26     31     26   1.0000E-03
    381      1      31     38     31     39   1.0000E-03
    382      2      31     38     31     39   1.0000E-03
    383      3      31     38     31     39   1.0000E-03
    384      4      31     38     31     39   1.0000E-03
    385      5      31     38     31     39   1.0000E-03
    386      6      31     38     31     39   1.0000E-03
    387      7      31     38     31     39   1.0000E-03
    388      8      31     38     31     39   1.0000E-03
    389      9      31     38     31     39   1.0000E-03
    390     10      31     38     31     39   1.0000E-03
    391     11      31     38     31     39   1.0000E-03
    392     12      31     38     31     39   1.0000E-03
    393     13      31     38     31     39   1.0000E-03
    394     14      31     38     31     39   1.0000E-03
    395     15      31     38     31     39   1.0000E-03
    396     16      31     38     31     39   1.0000E-03
    397     17      31     38     31     39   1.0000E-03
    398     18      31     38     31     39   1.0000E-03
    399     19      31     38     31     39   1.0000E-03
    400     20      31     38     31     39   1.0000E-03
    401      1      30     38     31     38   1.0000E-03
    402      2      30     38     31     38   1.0000E-03
    403      3      30     38     31     38   1.0000E-03
    404      4      30     38     31     38   1.0000E-03
    405      5      30     38     31     38   1.0000E-03
    406      6      30     38     31     38   1.0000E-03
    407      7      30     38     31     38   1.0000E-03
    408      8      30     38     31     38   1.0000E-03
    409      9      30     38     31     38   1.0000E-03
    410     10      30     38     31     38   1.0000E-03
    411     11      30     38     31     38   1.0000E-03
    412     12      30     38     31     38   1.0000E-03
    413     13      30     38     31     38   1.0000E-03
    414     14      30     38     31     38   1.0000E-03
    415     15      30     38     31     38   1.0000E-03
    416     16      30     38     31     38   1.0000E-03
    417     17      30     38     31     38   1.0000E-03
    418     18      30     38     31     38   1.0000E-03
    419     19      30     38     31     38   1.0000E-03
    420     20      30     38     31     38   1.0000E-03
    421      1      32     24     32     25   1.0000E-03
    422      2      32     24     32     25   1.0000E-03
    423      3      32     24     32     25   1.0000E-03
    424      4      32     24     32     25   1.0000E-03
    425      5      32     24     32     25   1.0000E-03
    426      6      32     24     32     25   1.0000E-03
    427      7      32     24     32     25   1.0000E-03
    428      8      32     24     32     25   1.0000E-03
    429      9      32     24     32     25   1.0000E-03
    430     10      32     24     32     25   1.0000E-03
    431     11      32     24     32     25   1.0000E-03
    432     12      32     24     32     25   1.0000E-03
    433     13      32     24     32     25   1.0000E-03
    434     14      32     24     32     25   1.0000E-03
    435     15      32     24     32     25   1.0000E-03
    436     16      32     24     32     25   1.0000E-03
    437     17      32     24     32     25   1.0000E-03
    438     18      32     24     32     25   1.0000E-03
    439     19      32     24     32     25   1.0000E-03
    440     20      32     24     32     25   1.0000E-03
    441      1      31     25     32     25   1.0000E-03
    442      2      31     25     32     25   1.0000E-03
    443      3      31     25     32     25   1.0000E-03
    444      4      31     25     32     25   1.0000E-03
    445      5      31     25     32     25   1.0000E-03
    446      6      31     25     32     25   1.0000E-03
    447      7      31     25     32     25   1.0000E-03
    448      8      31     25     32     25   1.0000E-03
    449      9      31     25     32     25   1.0000E-03
    450     10      31     25     32     25   1.0000E-03
    451     11      31     25     32     25   1.0000E-03
    452     12      31     25     32     25   1.0000E-03
    453     13      31     25     32     25   1.0000E-03
    454     14      31     25     32     25   1.0000E-03
    455     15      31     25     32     25   1.0000E-03
    456     16      31     25     32     25   1.0000E-03
    457     17      31     25     32     25   1.0000E-03
    458     18      31     25     32     25   1.0000E-03
    459     19      31     25     32     25   1.0000E-03
    460     20      31     25     32     25   1.0000E-03
    461      1      32     39     32     40   1.0000E-03
    462      2      32     39     32     40   1.0000E-03
    463      3      32     39     32     40   1.0000E-03
    464      4      32     39     32     40   1.0000E-03
    465      5      32     39     32     40   1.0000E-03
    466      6      32     39     32     40   1.0000E-03
    467      7      32     39     32     40   1.0000E-03
    468      8      32     39     32     40   1.0000E-03
    469      9      32     39     32     40   1.0000E-03
    470     10      32     39     32     40   1.0000E-03
    471     11      32     39     32     40   1.0000E-03
    472     12      32     39     32     40   1.0000E-03
    473     13      32     39     32     40   1.0000E-03
    474     14      32     39     32     40   1.0000E-03
    475     15      32     39     32     40   1.0000E-03
    476     16      32     39     32     40   1.0000E-03
    477     17      32     39     32     40   1.0000E-03
    478     18      32     39     32     40   1.0000E-03
    479     19      32     39     32     40   1.0000E-03
    480     20      32     39     32     40   1.0000E-03
    481      1      31     39     32     39   1.0000E-03
    482      2      31     39     32     39   1.0000E-03
    483      3      31     39     32     39   1.0000E-03
    484      4      31     39     32     39   1.0000E-03
    485      5      31     39     32     39   1.0000E-03
    486      6      31     39     32     39   1.0000E-03
    487      7      31     39     32     39   1.0000E-03
    488      8      31     39     32     39   1.0000E-03
    489      9      31     39     32     39   1.0000E-03
    490     10      31     39     32     39   1.0000E-03
    491     11      31     39     32     39   1.0000E-03
    492     12      31     39     32     39   1.0000E-03
    493     13      31     39     32     39   1.0000E-03
    494     14      31     39     32     39   1.0000E-03
    495     15      31     39     32     39   1.0000E-03
    496     16      31     39     32     39   1.0000E-03
    497     17      31     39     32     39   1.0000E-03
    498     18      31     39     32     39   1.0000E-03
    499     19      31     39     32     39   1.0000E-03
    500     20      31     39     32     39   1.0000E-03
    501      1      33     24     33     25   1.0000E-03
    502      2      33     24     33     25   1.0000E-03
    503      3      33     24     33     25   1.0000E-03
    504      4      33     24     33     25   1.0000E-03
    505      5      33     24     33     25   1.0000E-03
    506      6      33     24     33     25   1.0000E-03
    507      7      33     24     33     25   1.0000E-03
    508      8      33     24     33     25   1.0000E-03
    509      9      33     24     33     25   1.0000E-03
    510     10      33     24     33     25   1.0000E-03
    511     11      33     24     33     25   1.0000E-03
    512     12      33     24     33     25   1.0000E-03
    513     13      33     24     33     25   1.0000E-03
    514     14      33     24     33     25   1.0000E-03
    515     15      33     24     33     25   1.0000E-03
    516     16      33     24     33     25   1.0000E-03
    517     17      33     24     33     25   1.0000E-03
    518     18      33     24     33     25   1.0000E-03
    519     19      33     24     33     25   1.0000E-03
    520     20      33     24     33     25   1.0000E-03
    521      1      33     40     33     41   1.0000E-03
    522      2      33     40     33     41   1.0000E-03
    523      3      33     40     33     41   1.0000E-03
    524      4      33     40     33     41   1.0000E-03
    525      5      33     40     33     41   1.0000E-03
    526      6      33     40     33     41   1.0000E-03
    527      7      33     40     33     41   1.0000E-03
    528      8      33     40     33     41   1.0000E-03
    529      9      33     40     33     41   1.0000E-03
    530     10      33     40     33     41   1.0000E-03
    531     11      33     40     33     41   1.0000E-03
    532     12      33     40     33     41   1.0000E-03
    533     13      33     40     33     41   1.0000E-03
    534     14      33     40     33     41   1.0000E-03
    535     15      33     40     33     41   1.0000E-03
    536     16      33     40     33     41   1.0000E-03
    537     17      33     40     33     41   1.0000E-03
    538     18      33     40     33     41   1.0000E-03
    539     19      33     40     33     41   1.0000E-03
    540     20      33     40     33     41   1.0000E-03
    541      1      32     40     33     40   1.0000E-03
    542      2      32     40     33     40   1.0000E-03
    543      3      32     40     33     40   1.0000E-03
    544      4      32     40     33     40   1.0000E-03
    545      5      32     40     33     40   1.0000E-03
    546      6      32     40     33     40   1.0000E-03
    547      7      32     40     33     40   1.0000E-03
    548      8      32     40     33     40   1.0000E-03
    549      9      32     40     33     40   1.0000E-03
    550     10      32     40     33     40   1.0000E-03
    551     11      32     40     33     40   1.0000E-03
    552     12      32     40     33     40   1.0000E-03
    553     13      32     40     33     40   1.0000E-03
    554     14      32     40     33     40   1.0000E-03
    555     15      32     40     33     40   1.0000E-03
    556     16      32     40     33     40   1.0000E-03
    557     17      32     40     33     40   1.0000E-03
    558     18      32     40     33     40   1.0000E-03
    559     19      32     40     33     40   1.0000E-03
    560     20      32     40     33     40   1.0000E-03
    561      1      34     23     34     24   1.0000E-03
    562      2      34     23     34     24   1.0000E-03
    563      3      34     23     34     24   1.0000E-03
    564      4      34     23     34     24   1.0000E-03
    565      5      34     23     34     24   1.0000E-03
    566      6      34     23     34     24   1.0000E-03
    567      7      34     23     34     24   1.0000E-03
    568      8      34     23     34     24   1.0000E-03
    569      9      34     23     34     24   1.0000E-03
    570     10      34     23     34     24   1.0000E-03
    571     11      34     23     34     24   1.0000E-03
    572     12      34     23     34     24   1.0000E-03
    573     13      34     23     34     24   1.0000E-03
    574     14      34     23     34     24   1.0000E-03
    575     15      34     23     34     24   1.0000E-03
    576     16      34     23     34     24   1.0000E-03
    577     17      34     23     34     24   1.0000E-03
    578     18      34     23     34     24   1.0000E-03
    579     19      34     23     34     24   1.0000E-03
    580     20      34     23     34     24   1.0000E-03
    581      1      33     24     34     24   1.0000E-03
    582      2      33     24     34     24   1.0000E-03
    583      3      33     24     34     24   1.0000E-03
    584      4      33     24     34     24   1.0000E-03
    585      5      33     24     34     24   1.0000E-03
    586      6      33     24     34     24   1.0000E-03
    587      7      33     24     34     24   1.0000E-03
    588      8      33     24     34     24   1.0000E-03
    589      9      33     24     34     24   1.0000E-03
    590     10      33     24     34     24   1.0000E-03
    591     11      33     24     34     24   1.0000E-03
    592     12      33     24     34     24   1.0000E-03
    593     13      33     24     34     24   1.0000E-03
    594     14      33     24     34     24   1.0000E-03
    595     15      33     24     34     24   1.0000E-03
    596     16      33     24     34     24   1.0000E-03
    597     17      33     24     34     24   1.0000E-03
    598     18      33     24     34     24   1.0000E-03
    599     19      33     24     34     24   1.0000E-03
    600     20      33     24     34     24   1.0000E-03
    601      1      34     41     34     42   1.0000E-03
    602      2      34     41     34     42   1.0000E-03
    603      3      34     41     34     42   1.0000E-03
    604      4      34     41     34     42   1.0000E-03
    605      5      34     41     34     42   1.0000E-03
    606      6      34     41     34     42   1.0000E-03
    607      7      34     41     34     42   1.0000E-03
    608      8      34     41     34     42   1.0000E-03
    609      9      34     41     34     42   1.0000E-03
    610     10      34     41     34     42   1.0000E-03
    611     11      34     41     34     42   1.0000E-03
    612     12      34     41     34     42   1.0000E-03
    613     13      34     41     34     42   1.0000E-03
    614     14      34     41     34     42   1.0000E-03
    615     15      34     41     34     42   1.0000E-03
    616     16      34     41     34     42   1.0000E-03
    617     17      34     41     34     42   1.0000E-03
    618     18      34     41     34     42   1.0000E-03
    619     19      34     41     34     42   1.0000E-03
    620     20      34     41     34     42   1.0000E-03
    621      1      33     41     34     41   1.0000E-03
    622      2      33     41     34     41   1.0000E-03
    623      3      33     41     34     41   1.0000E-03
    624      4      33     41     34     41   1.0000E-03
    625      5      33     41     34     41   1.0000E-03
    626      6      33     41     34     41   1.0000E-03
    627      7      33     41     34     41   1.0000E-03
    628      8      33     41     34     41   1.0000E-03
    629      9      33     41     34     41   1.0000E-03
    630     10      33     41     34     41   1.0000E-03
    631     11      33     41     34     41   1.0000E-03
    632     12      33     41     34     41   1.0000E-03
    633     13      33     41     34     41   1.0000E-03
    634     14      33     41     34     41   1.0000E-03
    635     15      33     41     34     41   1.0000E-03
    636     16      33     41     34     41   1.0000E-03
    637     17      33     41     34     41   1.0000E-03
    638     18      33     41     34     41   1.0000E-03
    639     19      33     41     34     41   1.0000E-03
    640     20      33     41     34     41   1.0000E-03
    641      1      35     22     35     23   1.0000E-03
    642      2      35     22     35     23   1.0000E-03
    643      3      35     22     35     23   1.0000E-03
    644      4      35     22     35     23   1.0000E-03
    645      5      35     22     35     23   1.0000E-03
    646      6      35     22     35     23   1.0000E-03
    647      7      35     22     35     23   1.0000E-03
    648      8      35     22     35     23   1.0000E-03
    649      9      35     22     35     23   1.0000E-03
    650     10      35     22     35     23   1.0000E-03
    651     11      35     22     35     23   1.0000E-03
    652     12      35     22     35     23   1.0000E-03
    653     13      35     22     35     23   1.0000E-03
    654     14      35     22     35     23   1.0000E-03
    655     15      35     22     35     23   1.0000E-03
    656     16      35     22     35     23   1.0000E-03
    657     17      35     22     35     23   1.0000E-03
    658     18      35     22     35     23   1.0000E-03
    659     19      35     22     35     23   1.0000E-03
    660     20      35     22     35     23   1.0000E-03
    661      1      34     23     35     23   1.0000E-03
    662      2      34     23     35     23   1.0000E-03
    663      3      34     23     35     23   1.0000E-03
    664      4      34     23     35     23   1.0000E-03
    665      5      34     23     35     23   1.0000E-03
    666      6      34     23     35     23   1.0000E-03
    667      7      34     23     35     23   1.0000E-03
    668      8      34     23     35     23   1.0000E-03
    669      9      34     23     35     23   1.0000E-03
    670     10      34     23     35     23   1.0000E-03
    671     11      34     23     35     23   1.0000E-03
    672     12      34     23     35     23   1.0000E-03
    673     13      34     23     35     23   1.0000E-03
    674     14      34     23     35     23   1.0000E-03
    675     15      34     23     35     23   1.0000E-03
    676     16      34     23     35     23   1.0000E-03
    677     17      34     23     35     23   1.0000E-03
    678     18      34     23     35     23   1.0000E-03
    679     19      34     23     35     23   1.0000E-03
    680     20      34     23     35     23   1.0000E-03
    681      1      35     42     35     43   1.0000E-03
    682      2      35     42     35     43   1.0000E-03
    683      3      35     42     35     43   1.0000E-03
    684      4      35     42     35     43   1.0000E-03
    685      5      35     42     35     43   1.0000E-03
    686      6      35     42     35     43   1.0000E-03
    687      7      35     42     35     43   1.0000E-03
    688      8      35     42     35     43   1.0000E-03
    689      9      35     42     35     43   1.0000E-03
    690     10      35     42     35     43   1.0000E-03
    691     11      35     42     35     43   1.0000E-03
    692     12      35     42     35     43   1.0000E-03
    693     13      35     42     35     43   1.0000E-03
    694     14      35     42     35     43   1.0000E-03
    695     15      35     42     35     43   1.0000E-03
    696     16      35     42     35     43   1.0000E-03
    697     17      35     42     35     43   1.0000E-03
    698     18      35     42     35     43   1.0000E-03
    699     19      35     42     35     43   1.0000E-03
    700     20      35     42     35     43   1.0000E-03
    701      1      34     42     35     42   1.0000E-03
    702      2      34     42     35     42   1.0000E-03
    703      3      34     42     35     42   1.0000E-03
    704      4      34     42     35     42   1.0000E-03
    705      5      34     42     35     42   1.0000E-03
    706      6      34     42     35     42   1.0000E-03
    707      7      34     42     35     42   1.0000E-03
    708      8      34     42     35     42   1.0000E-03
    709      9      34     42     35     42   1.0000E-03
    710     10      34     42     35     42   1.0000E-03
    711     11      34     42     35     42   1.0000E-03
    712     12      34     42     35     42   1.0000E-03
    713     13      34     42     35     42   1.0000E-03
    714     14      34     42     35     42   1.0000E-03
    715     15      34     42     35     42   1.0000E-03
    716     16      34     42     35     42   1.0000E-03
    717     17      34     42     35     42   1.0000E-03
    718     18      34     42     35     42   1.0000E-03
    719     19      34     42     35     42   1.0000E-03
    720     20      34     42     35     42   1.0000E-03
    721      1      36     21     36     22   1.0000E-03
    722      2      36     21     36     22   1.0000E-03
    723      3      36     21     36     22   1.0000E-03
    724      4      36     21     36     22   1.0000E-03
    725      5      36     21     36     22   1.0000E-03
    726      6      36     21     36     22   1.0000E-03
    727      7      36     21     36     22   1.0000E-03
    728      8      36     21     36     22   1.0000E-03
    729      9      36     21     36     22   1.0000E-03
    730     10      36     21     36     22   1.0000E-03
    731     11      36     21     36     22   1.0000E-03
    732     12      36     21     36     22   1.0000E-03
    733     13      36     21     36     22   1.0000E-03
    734     14      36     21     36     22   1.0000E-03
    735     15      36     21     36     22   1.0000E-03
    736     16      36     21     36     22   1.0000E-03
    737     17      36     21     36     22   1.0000E-03
    738     18      36     21     36     22   1.0000E-03
    739     19      36     21     36     22   1.0000E-03
    740     20      36     21     36     22   1.0000E-03
    741      1      35     22     36     22   1.0000E-03
    742      2      35     22     36     22   1.0000E-03
    743      3      35     22     36     22   1.0000E-03
    744      4      35     22     36     22   1.0000E-03
    745      5      35     22     36     22   1.0000E-03
    746      6      35     22     36     22   1.0000E-03
    747      7      35     22     36     22   1.0000E-03
    748      8      35     22     36     22   1.0000E-03
    749      9      35     22     36     22   1.0000E-03
    750     10      35     22     36     22   1.0000E-03
    751     11      35     22     36     22   1.0000E-03
    752     12      35     22     36     22   1.0000E-03
    753     13      35     22     36     22   1.0000E-03
    754     14      35     22     36     22   1.0000E-03
    755     15      35     22     36     22   1.0000E-03
    756     16      35     22     36     22   1.0000E-03
    757     17      35     22     36     22   1.0000E-03
    758     18      35     22     36     22   1.0000E-03
    759     19      35     22     36     22   1.0000E-03
    760     20      35     22     36     22   1.0000E-03
    761      1      36     43     36     44   1.0000E-03
    762      2      36     43     36     44   1.0000E-03
    763      3      36     43     36     44   1.0000E-03
    764      4      36     43     36     44   1.0000E-03
    765      5      36     43     36     44   1.0000E-03
    766      6      36     43     36     44   1.0000E-03
    767      7      36     43     36     44   1.0000E-03
    768      8      36     43     36     44   1.0000E-03
    769      9      36     43     36     44   1.0000E-03
    770     10      36     43     36     44   1.0000E-03
    771     11      36     43     36     44   1.0000E-03
    772     12      36     43     36     44   1.0000E-03
    773     13      36     43     36     44   1.0000E-03
    774     14      36     43     36     44   1.0000E-03
    775     15      36     43     36     44   1.0000E-03
    776     16      36     43     36     44   1.0000E-03
    777     17      36     43     36     44   1.0000E-03
    778     18      36     43     36     44   1.0000E-03
    779     19      36     43     36     44   1.0000E-03
    780     20      36     43     36     44   1.0000E-03
    781      1      35     43     36     43   1.0000E-03
    782      2      35     43     36     43   1.0000E-03
    783      3      35     43     36     43   1.0000E-03
    784      4      35     43     36     43   1.0000E-03
    785      5      35     43     36     43   1.0000E-03
    786      6      35     43     36     43   1.0000E-03
    787      7      35     43     36     43   1.0000E-03
    788      8      35     43     36     43   1.0000E-03
    789      9      35     43     36     43   1.0000E-03
    790     10      35     43     36     43   1.0000E-03
    791     11      35     43     36     43   1.0000E-03
    792     12      35     43     36     43   1.0000E-03
    793     13      35     43     36     43   1.0000E-03
    794     14      35     43     36     43   1.0000E-03
    795     15      35     43     36     43   1.0000E-03
    796     16      35     43     36     43   1.0000E-03
    797     17      35     43     36     43   1.0000E-03
    798     18      35     43     36     43   1.0000E-03
    799     19      35     43     36     43   1.0000E-03
    800     20      35     43     36     43   1.0000E-03
    801      1      36     43     37     43   1.0000E-03
    802      2      36     43     37     43   1.0000E-03
    803      3      36     43     37     43   1.0000E-03
    804      4      36     43     37     43   1.0000E-03
    805      5      36     43     37     43   1.0000E-03
    806      6      36     43     37     43   1.0000E-03
    807      7      36     43     37     43   1.0000E-03
    808      8      36     43     37     43   1.0000E-03
    809      9      36     43     37     43   1.0000E-03
    810     10      36     43     37     43   1.0000E-03
    811     11      36     43     37     43   1.0000E-03
    812     12      36     43     37     43   1.0000E-03
    813     13      36     43     37     43   1.0000E-03
    814     14      36     43     37     43   1.0000E-03
    815     15      36     43     37     43   1.0000E-03
    816     16      36     43     37     43   1.0000E-03
    817     17      36     43     37     43   1.0000E-03
    818     18      36     43     37     43   1.0000E-03
    819     19      36     43     37     43   1.0000E-03
    820     20      36     43     37     43   1.0000E-03
    821      1      37     21     37     22   1.0000E-03
    822      2      37     21     37     22   1.0000E-03
    823      3      37     21     37     22   1.0000E-03
    824      4      37     21     37     22   1.0000E-03
    825      5      37     21     37     22   1.0000E-03
    826      6      37     21     37     22   1.0000E-03
    827      7      37     21     37     22   1.0000E-03
    828      8      37     21     37     22   1.0000E-03
    829      9      37     21     37     22   1.0000E-03
    830     10      37     21     37     22   1.0000E-03
    831     11      37     21     37     22   1.0000E-03
    832     12      37     21     37     22   1.0000E-03
    833     13      37     21     37     22   1.0000E-03
    834     14      37     21     37     22   1.0000E-03
    835     15      37     21     37     22   1.0000E-03
    836     16      37     21     37     22   1.0000E-03
    837     17      37     21     37     22   1.0000E-03
    838     18      37     21     37     22   1.0000E-03
    839     19      37     21     37     22   1.0000E-03
    840     20      37     21     37     22   1.0000E-03
    841      1      37     42     37     43   1.0000E-03
    842      2      37     42     37     43   1.0000E-03
    843      3      37     42     37     43   1.0000E-03
    844      4      37     42     37     43   1.0000E-03
    845      5      37     42     37     43   1.0000E-03
    846      6      37     42     37     43   1.0000E-03
    847      7      37     42     37     43   1.0000E-03
    848      8      37     42     37     43   1.0000E-03
    849      9      37     42     37     43   1.0000E-03
    850     10      37     42     37     43   1.0000E-03
    851     11      37     42     37     43   1.0000E-03
    852     12      37     42     37     43   1.0000E-03
    853     13      37     42     37     43   1.0000E-03
    854     14      37     42     37     43   1.0000E-03
    855     15      37     42     37     43   1.0000E-03
    856     16      37     42     37     43   1.0000E-03
    857     17      37     42     37     43   1.0000E-03
    858     18      37     42     37     43   1.0000E-03
    859     19      37     42     37     43   1.0000E-03
    860     20      37     42     37     43   1.0000E-03
    861      1      38     20     38     21   1.0000E-03
    862      2      38     20     38     21   1.0000E-03
    863      3      38     20     38     21   1.0000E-03
    864      4      38     20     38     21   1.0000E-03
    865      5      38     20     38     21   1.0000E-03
    866      6      38     20     38     21   1.0000E-03
    867      7      38     20     38     21   1.0000E-03
    868      8      38     20     38     21   1.0000E-03
    869      9      38     20     38     21   1.0000E-03
    870     10      38     20     38     21   1.0000E-03
    871     11      38     20     38     21   1.0000E-03
    872     12      38     20     38     21   1.0000E-03
    873     13      38     20     38     21   1.0000E-03
    874     14      38     20     38     21   1.0000E-03
    875     15      38     20     38     21   1.0000E-03
    876     16      38     20     38     21   1.0000E-03
    877     17      38     20     38     21   1.0000E-03
    878     18      38     20     38     21   1.0000E-03
    879     19      38     20     38     21   1.0000E-03
    880     20      38     20     38     21   1.0000E-03
    881      1      37     21     38     21   1.0000E-03
    882      2      37     21     38     21   1.0000E-03
    883      3      37     21     38     21   1.0000E-03
    884      4      37     21     38     21   1.0000E-03
    885      5      37     21     38     21   1.0000E-03
    886      6      37     21     38     21   1.0000E-03
    887      7      37     21     38     21   1.0000E-03
    888      8      37     21     38     21   1.0000E-03
    889      9      37     21     38     21   1.0000E-03
    890     10      37     21     38     21   1.0000E-03
    891     11      37     21     38     21   1.0000E-03
    892     12      37     21     38     21   1.0000E-03
    893     13      37     21     38     21   1.0000E-03
    894     14      37     21     38     21   1.0000E-03
    895     15      37     21     38     21   1.0000E-03
    896     16      37     21     38     21   1.0000E-03
    897     17      37     21     38     21   1.0000E-03
    898     18      37     21     38     21   1.0000E-03
    899     19      37     21     38     21   1.0000E-03
    900     20      37     21     38     21   1.0000E-03
    901      1      38     42     38     43   1.0000E-03
    902      2      38     42     38     43   1.0000E-03
    903      3      38     42     38     43   1.0000E-03
    904      4      38     42     38     43   1.0000E-03
    905      5      38     42     38     43   1.0000E-03
    906      6      38     42     38     43   1.0000E-03
    907      7      38     42     38     43   1.0000E-03
    908      8      38     42     38     43   1.0000E-03
    909      9      38     42     38     43   1.0000E-03
    910     10      38     42     38     43   1.0000E-03
    911     11      38     42     38     43   1.0000E-03
    912     12      38     42     38     43   1.0000E-03
    913     13      38     42     38     43   1.0000E-03
    914     14      38     42     38     43   1.0000E-03
    915     15      38     42     38     43   1.0000E-03
    916     16      38     42     38     43   1.0000E-03
    917     17      38     42     38     43   1.0000E-03
    918     18      38     42     38     43   1.0000E-03
    919     19      38     42     38     43   1.0000E-03
    920     20      38     42     38     43   1.0000E-03
    921      1      39     19     39     20   1.0000E-03
    922      2      39     19     39     20   1.0000E-03
    923      3      39     19     39     20   1.0000E-03
    924      4      39     19     39     20   1.0000E-03
    925      5      39     19     39     20   1.0000E-03
    926      6      39     19     39     20   1.0000E-03
    927      7      39     19     39     20   1.0000E-03
    928      8      39     19     39     20   1.0000E-03
    929      9      39     19     39     20   1.0000E-03
    930     10      39     19     39     20   1.0000E-03
    931     11      39     19     39     20   1.0000E-03
    932     12      39     19     39     20   1.0000E-03
    933     13      39     19     39     20   1.0000E-03
    934     14      39     19     39     20   1.0000E-03
    935     15      39     19     39     20   1.0000E-03
    936     16      39     19     39     20   1.0000E-03
    937     17      39     19     39     20   1.0000E-03
    938     18      39     19     39     20   1.0000E-03
    939     19      39     19     39     20   1.0000E-03
    940     20      39     19     39     20   1.0000E-03
    941      1      38     20     39     20   1.0000E-03
    942      2      38     20     39     20   1.0000E-03
    943      3      38     20     39     20   1.0000E-03
    944      4      38     20     39     20   1.0000E-03
    945      5      38     20     39     20   1.0000E-03
    946      6      38     20     39     20   1.0000E-03
    947      7      38     20     39     20   1.0000E-03
    948      8      38     20     39     20   1.0000E-03
    949      9      38     20     39     20   1.0000E-03
    950     10      38     20     39     20   1.0000E-03
    951     11      38     20     39     20   1.0000E-03
    952     12      38     20     39     20   1.0000E-03
    953     13      38     20     39     20   1.0000E-03
    954     14      38     20     39     20   1.0000E-03
    955     15      38     20     39     20   1.0000E-03
    956     16      38     20     39     20   1.0000E-03
    957     17      38     20     39     20   1.0000E-03
    958     18      38     20     39     20   1.0000E-03
    959     19      38     20     39     20   1.0000E-03
    960     20      38     20     39     20   1.0000E-03
    961      1      39     42     39     43   1.0000E-03
    962      2      39     42     39     43   1.0000E-03
    963      3      39     42     39     43   1.0000E-03
    964      4      39     42     39     43   1.0000E-03
    965      5      39     42     39     43   1.0000E-03
    966      6      39     42     39     43   1.0000E-03
    967      7      39     42     39     43   1.0000E-03
    968      8      39     42     39     43   1.0000E-03
    969      9      39     42     39     43   1.0000E-03
    970     10      39     42     39     43   1.0000E-03
    971     11      39     42     39     43   1.0000E-03
    972     12      39     42     39     43   1.0000E-03
    973     13      39     42     39     43   1.0000E-03
    974     14      39     42     39     43   1.0000E-03
    975     15      39     42     39     43   1.0000E-03
    976     16      39     42     39     43   1.0000E-03
    977     17      39     42     39     43   1.0000E-03
    978     18      39     42     39     43   1.0000E-03
    979     19      39     42     39     43   1.0000E-03
    980     20      39     42     39     43   1.0000E-03
    981      1      40     18     40     19   1.0000E-03
    982      2      40     18     40     19   1.0000E-03
    983      3      40     18     40     19   1.0000E-03
    984      4      40     18     40     19   1.0000E-03
[...]
   2799     19      75     28     75     29   1.0000E-03
   2800     20      75     28     75     29   1.0000E-03
   2801      1      75     29     76     29   1.0000E-03
   2802      2      75     29     76     29   1.0000E-03
   2803      3      75     29     76     29   1.0000E-03
   2804      4      75     29     76     29   1.0000E-03
   2805      5      75     29     76     29   1.0000E-03
   2806      6      75     29     76     29   1.0000E-03
   2807      7      75     29     76     29   1.0000E-03
   2808      8      75     29     76     29   1.0000E-03
   2809      9      75     29     76     29   1.0000E-03
   2810     10      75     29     76     29   1.0000E-03
   2811     11      75     29     76     29   1.0000E-03
   2812     12      75     29     76     29   1.0000E-03
   2813     13      75     29     76     29   1.0000E-03
   2814     14      75     29     76     29   1.0000E-03
   2815     15      75     29     76     29   1.0000E-03
   2816     16      75     29     76     29   1.0000E-03
   2817     17      75     29     76     29   1.0000E-03
   2818     18      75     29     76     29   1.0000E-03
   2819     19      75     29     76     29   1.0000E-03
   2820     20      75     29     76     29   1.0000E-03
   2821      1      75     34     76     34   1.0000E-03
   2822      2      75     34     76     34   1.0000E-03
   2823      3      75     34     76     34   1.0000E-03
   2824      4      75     34     76     34   1.0000E-03
   2825      5      75     34     76     34   1.0000E-03
   2826      6      75     34     76     34   1.0000E-03
   2827      7      75     34     76     34   1.0000E-03
   2828      8      75     34     76     34   1.0000E-03
   2829      9      75     34     76     34   1.0000E-03
   2830     10      75     34     76     34   1.0000E-03
   2831     11      75     34     76     34   1.0000E-03
   2832     12      75     34     76     34   1.0000E-03
   2833     13      75     34     76     34   1.0000E-03
   2834     14      75     34     76     34   1.0000E-03
   2835     15      75     34     76     34   1.0000E-03
   2836     16      75     34     76     34   1.0000E-03
   2837     17      75     34     76     34   1.0000E-03
   2838     18      75     34     76     34   1.0000E-03
   2839     19      75     34     76     34   1.0000E-03
   2840     20      75     34     76     34   1.0000E-03
   2841      1      75     35     76     35   1.0000E-03
   2842      2      75     35     76     35   1.0000E-03
   2843      3      75     35     76     35   1.0000E-03
   2844      4      75     35     76     35   1.0000E-03
   2845      5      75     35     76     35   1.0000E-03
   2846      6      75     35     76     35   1.0000E-03
   2847      7      75     35     76     35   1.0000E-03
   2848      8      75     35     76     35   1.0000E-03
   2849      9      75     35     76     35   1.0000E-03
   2850     10      75     35     76     35   1.0000E-03
   2851     11      75     35     76     35   1.0000E-03
   2852     12      75     35     76     35   1.0000E-03
   2853     13      75     35     76     35   1.0000E-03
   2854     14      75     35     76     35   1.0000E-03
   2855     15      75     35     76     35   1.0000E-03
   2856     16      75     35     76     35   1.0000E-03
   2857     17      75     35     76     35   1.0000E-03
   2858     18      75     35     76     35   1.0000E-03
   2859     19      75     35     76     35   1.0000E-03
   2860     20      75     35     76     35   1.0000E-03
   2861      1      75     36     76     36   1.0000E-03
   2862      2      75     36     76     36   1.0000E-03
   2863      3      75     36     76     36   1.0000E-03
   2864      4      75     36     76     36   1.0000E-03
   2865      5      75     36     76     36   1.0000E-03
   2866      6      75     36     76     36   1.0000E-03
   2867      7      75     36     76     36   1.0000E-03
   2868      8      75     36     76     36   1.0000E-03
   2869      9      75     36     76     36   1.0000E-03
   2870     10      75     36     76     36   1.0000E-03
   2871     11      75     36     76     36   1.0000E-03
   2872     12      75     36     76     36   1.0000E-03
   2873     13      75     36     76     36   1.0000E-03
   2874     14      75     36     76     36   1.0000E-03
   2875     15      75     36     76     36   1.0000E-03
   2876     16      75     36     76     36   1.0000E-03
   2877     17      75     36     76     36   1.0000E-03
   2878     18      75     36     76     36   1.0000E-03
   2879     19      75     36     76     36   1.0000E-03
   2880     20      75     36     76     36   1.0000E-03
   2881      1      75     37     75     38   1.0000E-03
   2882      2      75     37     75     38   1.0000E-03
   2883      3      75     37     75     38   1.0000E-03
   2884      4      75     37     75     38   1.0000E-03
   2885      5      75     37     75     38   1.0000E-03
   2886      6      75     37     75     38   1.0000E-03
   2887      7      75     37     75     38   1.0000E-03
   2888      8      75     37     75     38   1.0000E-03
   2889      9      75     37     75     38   1.0000E-03
   2890     10      75     37     75     38   1.0000E-03
   2891     11      75     37     75     38   1.0000E-03
   2892     12      75     37     75     38   1.0000E-03
   2893     13      75     37     75     38   1.0000E-03
   2894     14      75     37     75     38   1.0000E-03
   2895     15      75     37     75     38   1.0000E-03
   2896     16      75     37     75     38   1.0000E-03
   2897     17      75     37     75     38   1.0000E-03
   2898     18      75     37     75     38   1.0000E-03
   2899     19      75     37     75     38   1.0000E-03
   2900     20      75     37     75     38   1.0000E-03
   2901      1      75     37     76     37   1.0000E-03
   2902      2      75     37     76     37   1.0000E-03
   2903      3      75     37     76     37   1.0000E-03
   2904      4      75     37     76     37   1.0000E-03
   2905      5      75     37     76     37   1.0000E-03
   2906      6      75     37     76     37   1.0000E-03
   2907      7      75     37     76     37   1.0000E-03
   2908      8      75     37     76     37   1.0000E-03
   2909      9      75     37     76     37   1.0000E-03
   2910     10      75     37     76     37   1.0000E-03
   2911     11      75     37     76     37   1.0000E-03
   2912     12      75     37     76     37   1.0000E-03
   2913     13      75     37     76     37   1.0000E-03
   2914     14      75     37     76     37   1.0000E-03
   2915     15      75     37     76     37   1.0000E-03
   2916     16      75     37     76     37   1.0000E-03
   2917     17      75     37     76     37   1.0000E-03
   2918     18      75     37     76     37   1.0000E-03
   2919     19      75     37     76     37   1.0000E-03
   2920     20      75     37     76     37   1.0000E-03
   2921      1      76     29     76     30   1.0000E-03
   2922      2      76     29     76     30   1.0000E-03
   2923      3      76     29     76     30   1.0000E-03
   2924      4      76     29     76     30   1.0000E-03
   2925      5      76     29     76     30   1.0000E-03
   2926      6      76     29     76     30   1.0000E-03
   2927      7      76     29     76     30   1.0000E-03
   2928      8      76     29     76     30   1.0000E-03
   2929      9      76     29     76     30   1.0000E-03
   2930     10      76     29     76     30   1.0000E-03
   2931     11      76     29     76     30   1.0000E-03
   2932     12      76     29     76     30   1.0000E-03
   2933     13      76     29     76     30   1.0000E-03
   2934     14      76     29     76     30   1.0000E-03
   2935     15      76     29     76     30   1.0000E-03
   2936     16      76     29     76     30   1.0000E-03
   2937     17      76     29     76     30   1.0000E-03
   2938     18      76     29     76     30   1.0000E-03
   2939     19      76     29     76     30   1.0000E-03
   2940     20      76     29     76     30   1.0000E-03
   2941      1      76     30     77     30   1.0000E-03
   2942      2      76     30     77     30   1.0000E-03
   2943      3      76     30     77     30   1.0000E-03
   2944      4      76     30     77     30   1.0000E-03
   2945      5      76     30     77     30   1.0000E-03
   2946      6      76     30     77     30   1.0000E-03
   2947      7      76     30     77     30   1.0000E-03
   2948      8      76     30     77     30   1.0000E-03
   2949      9      76     30     77     30   1.0000E-03
   2950     10      76     30     77     30   1.0000E-03
   2951     11      76     30     77     30   1.0000E-03
   2952     12      76     30     77     30   1.0000E-03
   2953     13      76     30     77     30   1.0000E-03
   2954     14      76     30     77     30   1.0000E-03
   2955     15      76     30     77     30   1.0000E-03
   2956     16      76     30     77     30   1.0000E-03
   2957     17      76     30     77     30   1.0000E-03
   2958     18      76     30     77     30   1.0000E-03
   2959     19      76     30     77     30   1.0000E-03
   2960     20      76     30     77     30   1.0000E-03
   2961      1      76     31     77     31   1.0000E-03
   2962      2      76     31     77     31   1.0000E-03
   2963      3      76     31     77     31   1.0000E-03
   2964      4      76     31     77     31   1.0000E-03
   2965      5      76     31     77     31   1.0000E-03
   2966      6      76     31     77     31   1.0000E-03
   2967      7      76     31     77     31   1.0000E-03
   2968      8      76     31     77     31   1.0000E-03
   2969      9      76     31     77     31   1.0000E-03
   2970     10      76     31     77     31   1.0000E-03
   2971     11      76     31     77     31   1.0000E-03
   2972     12      76     31     77     31   1.0000E-03
   2973     13      76     31     77     31   1.0000E-03
   2974     14      76     31     77     31   1.0000E-03
   2975     15      76     31     77     31   1.0000E-03
   2976     16      76     31     77     31   1.0000E-03
   2977     17      76     31     77     31   1.0000E-03
   2978     18      76     31     77     31   1.0000E-03
   2979     19      76     31     77     31   1.0000E-03
   2980     20      76     31     77     31   1.0000E-03
   2981      1      76     32     77     32   1.0000E-03
   2982      2      76     32     77     32   1.0000E-03
   2983      3      76     32     77     32   1.0000E-03
   2984      4      76     32     77     32   1.0000E-03
   2985      5      76     32     77     32   1.0000E-03
   2986      6      76     32     77     32   1.0000E-03
   2987      7      76     32     77     32   1.0000E-03
   2988      8      76     32     77     32   1.0000E-03
   2989      9      76     32     77     32   1.0000E-03
   2990     10      76     32     77     32   1.0000E-03
   2991     11      76     32     77     32   1.0000E-03
   2992     12      76     32     77     32   1.0000E-03
   2993     13      76     32     77     32   1.0000E-03
   2994     14      76     32     77     32   1.0000E-03
   2995     15      76     32     77     32   1.0000E-03
   2996     16      76     32     77     32   1.0000E-03
   2997     17      76     32     77     32   1.0000E-03
   2998     18      76     32     77     32   1.0000E-03
   2999     19      76     32     77     32   1.0000E-03
   3000     20      76     32     77     32   1.0000E-03
   3001      1      76     33     76     34   1.0000E-03
   3002      2      76     33     76     34   1.0000E-03
   3003      3      76     33     76     34   1.0000E-03
   3004      4      76     33     76     34   1.0000E-03
   3005      5      76     33     76     34   1.0000E-03
   3006      6      76     33     76     34   1.0000E-03
   3007      7      76     33     76     34   1.0000E-03
   3008      8      76     33     76     34   1.0000E-03
   3009      9      76     33     76     34   1.0000E-03
   3010     10      76     33     76     34   1.0000E-03
   3011     11      76     33     76     34   1.0000E-03
   3012     12      76     33     76     34   1.0000E-03
   3013     13      76     33     76     34   1.0000E-03
   3014     14      76     33     76     34   1.0000E-03
   3015     15      76     33     76     34   1.0000E-03
   3016     16      76     33     76     34   1.0000E-03
   3017     17      76     33     76     34   1.0000E-03
   3018     18      76     33     76     34   1.0000E-03
   3019     19      76     33     76     34   1.0000E-03
   3020     20      76     33     76     34   1.0000E-03
   3021      1      76     33     77     33   1.0000E-03
   3022      2      76     33     77     33   1.0000E-03
   3023      3      76     33     77     33   1.0000E-03
   3024      4      76     33     77     33   1.0000E-03
   3025      5      76     33     77     33   1.0000E-03
   3026      6      76     33     77     33   1.0000E-03
   3027      7      76     33     77     33   1.0000E-03
   3028      8      76     33     77     33   1.0000E-03
   3029      9      76     33     77     33   1.0000E-03
   3030     10      76     33     77     33   1.0000E-03
   3031     11      76     33     77     33   1.0000E-03
   3032     12      76     33     77     33   1.0000E-03
   3033     13      76     33     77     33   1.0000E-03
   3034     14      76     33     77     33   1.0000E-03
   3035     15      76     33     77     33   1.0000E-03
   3036     16      76     33     77     33   1.0000E-03
   3037     17      76     33     77     33   1.0000E-03
   3038     18      76     33     77     33   1.0000E-03
   3039     19      76     33     77     33   1.0000E-03
   3040     20      76     33     77     33   1.0000E-03

   3040 HFB BARRIERS
 # GMG package for  MODFLOW-2005, generated by Flopy.
 -------------------------------------------------
 GMG -- PCG GEOMETRIC MULTI-GRID SOLUTION PACKAGE:
 -------------------------------------------------
 RCLOSE  = 1.00E-05; INNER CONVERGENCE CRITERION
 IITER   =       30; MAX INNER ITERATIONS            
 HCLOSE  = 1.00E-05; OUTER CONVERGENCE CRITERION
 MXIITER =       50; MAX OUTER ITERATIONS            
 DAMP    = 1.00E+00; DAMPING PARAMETER          
 IADAMP  =        0; ADAPTIVE DAMPING FLAG           
 IOUTGMG =        0; OUTPUT CONTROL FLAG             
 ISM     =        0; SMOOTHER FLAG                   
 ISC     =        0; COARSENING FLAG                 
 RELAX   = 0.00E+00; RELAXATION PARAMETER       
 -------------------------------------------------
 ILU SMOOTHING IMPLEMENTED
 FULL COARSENING
 -------------------------------------------------
   14 MEGABYTES OF MEMORY ALLOCATED BY GMG
 -------------------------------------------------



 ***Link-MT3DMS Package v7***
 OPENING LINK-MT3DMS OUTPUT FILE: mt3d_link.ftl                                                                                                                                                                                           
 ON UNIT NUMBER:    54
 FILE TYPE: UNFORMATTED
 HEADER OPTION: EXTENDED
 ***Link-MT3DMS Package v7***

1
                            STRESS PERIOD NO.    1, LENGTH =   10950.00    
                            -----------------------------------------------

                              NUMBER OF TIME STEPS =     1

                               MULTIPLIER FOR DELT =     1.000

                            INITIAL TIME STEP SIZE =   10950.00    

 WELL NO.  LAYER   ROW   COL   STRESS RATE         
 --------------------------------------------------
      1      9     50     35      -7.164    
      2     10     50     35      -11.94    
      3     11     50     35      -11.94    
      4     12     50     35      -11.94    
      5     13     50     35      -11.94    
      6     14     50     35      -5.970    
      7     15     50     35      -5.970    
      8     16     50     35      -5.970    
      9     17     50     35      -5.970    
     10     18     50     35      -1.194    
     11      9     35     31      -7.164    
     12     10     35     31      -11.94    
     13     11     35     31      -11.94    
     14     12     35     31      -11.94    
     15     13     35     31      -11.94    
     16     14     35     31      -5.970    
     17     15     35     31      -5.970    
     18     16     35     31      -5.970    
     19     17     35     31      -5.970    
     20     18     35     31      -1.194    
     21      9     39     26      -7.164    
     22     10     39     26      -11.94    
     23     11     39     26      -11.94    
     24     12     39     26      -11.94    
     25     13     39     26      -11.94    
     26     14     39     26      -5.970    
     27     15     39     26      -5.970    
     28     16     39     26      -5.970    
     29     17     39     26      -5.970    
     30     18     39     26      -1.194    

     30 WELLS



                           RECHARGE
 READING ON UNIT   19 WITH FORMAT: (64E15.6)           
 
 SOLVING FOR HEAD 

 OUTPUT CONTROL FOR STRESS PERIOD    1   TIME STEP    1
    SAVE HEAD FOR ALL LAYERS
    SAVE BUDGET
 UBDSV2 SAVING "   CONSTANT HEAD" ON UNIT1001 AT TIME STEP  1, STRESS PERIOD   1
 UBDSV1 SAVING "FLOW RIGHT FACE " ON UNIT1001 AT TIME STEP  1, STRESS PERIOD   1
 UBDSV1 SAVING "FLOW FRONT FACE " ON UNIT1001 AT TIME STEP  1, STRESS PERIOD   1
 UBDSV1 SAVING "FLOW LOWER FACE " ON UNIT1001 AT TIME STEP  1, STRESS PERIOD   1
 UBDSV4 SAVING "           WELLS" ON UNIT1001 AT TIME STEP  1, STRESS PERIOD   1
 UBDSV3 SAVING "        RECHARGE" ON UNIT1001 AT TIME STEP  1, STRESS PERIOD   1

 SAVING SATURATED THICKNESS AND FLOW TERMS ON UNIT   54 FOR MT3DMS
 BY THE LINK-MT3DMS PACKAGE V7 AT TIME STEP    1, STRESS PERIOD    1


 HEAD WILL BE SAVED ON UNIT   51 AT END OF TIME STEP    1, STRESS PERIOD    1
1
  VOLUMETRIC BUDGET FOR ENTIRE MODEL AT END OF TIME STEP    1, STRESS PERIOD   1
  ------------------------------------------------------------------------------

     CUMULATIVE VOLUMES      L**3       RATES FOR THIS TIME STEP      L**3/T
     ------------------                 ------------------------

           IN:                                      IN:
           ---                                      ---
             STORAGE =           0.0000               STORAGE =           0.0000
       CONSTANT HEAD =     6322209.5000         CONSTANT HEAD =         577.3707
               WELLS =           0.0000                 WELLS =           0.0000
            RECHARGE =    20027632.0000              RECHARGE =        1829.0076

            TOTAL IN =    26349842.0000              TOTAL IN =        2406.3784

          OUT:                                     OUT:
          ----                                     ----
             STORAGE =           0.0000               STORAGE =           0.0000
       CONSTANT HEAD =    23721842.0000         CONSTANT HEAD =        2166.3782
               WELLS =     2628000.0000                 WELLS =         240.0000
            RECHARGE =           0.0000              RECHARGE =           0.0000

           TOTAL OUT =    26349842.0000             TOTAL OUT =        2406.3782

            IN - OUT =           0.0000              IN - OUT =       2.4414E-04

 PERCENT DISCREPANCY =           0.00     PERCENT DISCREPANCY =           0.00






         TIME SUMMARY AT END OF TIME STEP    1 IN STRESS PERIOD    1
                    SECONDS     MINUTES      HOURS       DAYS        YEARS
                    -----------------------------------------------------------
   TIME STEP LENGTH 9.46080E+08 1.57680E+07 2.62800E+05  10950.      29.979    
 STRESS PERIOD TIME 9.46080E+08 1.57680E+07 2.62800E+05  10950.      29.979    
         TOTAL TIME 9.46080E+08 1.57680E+07 2.62800E+05  10950.      29.979    
1

 Run end date and time (yyyy/mm/dd hh:mm:ss): 2019/06/03  9:22:49
 Elapsed run time:  1.397 Seconds

