                                  MODFLOW-2005     
      U.S. GEOLOGICAL SURVEY MODULAR FINITE-DIFFERENCE GROUND-WATER FLOW MODEL
                            VERSION 1.12.00 2/3/2017

 LIST FILE: Griftpark_doubleQ.list
                         UNIT    2

 OPENING Griftpark_doubleQ.dis
 FILE TYPE:DIS   UNIT   11   STATUS:OLD    
 FORMAT:FORMATTED              ACCESS:SEQUENTIAL          

 OPENING Griftpark_doubleQ.bas
 FILE TYPE:BAS6   UNIT   13   STATUS:OLD    
 FORMAT:FORMATTED              ACCESS:SEQUENTIAL          

 OPENING Griftpark_doubleQ.lpf
 FILE TYPE:LPF   UNIT   15   STATUS:OLD    
 FORMAT:FORMATTED              ACCESS:SEQUENTIAL          

 OPENING Griftpark_doubleQ.hfb
 FILE TYPE:HFB6   UNIT   29   STATUS:OLD    
 FORMAT:FORMATTED              ACCESS:SEQUENTIAL          

 OPENING Griftpark_doubleQ.wel
 FILE TYPE:WEL   UNIT   20   STATUS:OLD    
 FORMAT:FORMATTED              ACCESS:SEQUENTIAL          

 OPENING Griftpark_doubleQ.rch
 FILE TYPE:RCH   UNIT   19   STATUS:OLD    
 FORMAT:FORMATTED              ACCESS:SEQUENTIAL          

 OPENING Griftpark_doubleQ.oc
 FILE TYPE:OC   UNIT   14   STATUS:OLD    
 FORMAT:FORMATTED              ACCESS:SEQUENTIAL          

 OPENING Griftpark_doubleQ.lmt6
 FILE TYPE:LMT6   UNIT   30   STATUS:OLD    
 FORMAT:FORMATTED              ACCESS:SEQUENTIAL          

 OPENING Griftpark_doubleQ.gmg
 FILE TYPE:GMG   UNIT   27   STATUS:OLD    
 FORMAT:FORMATTED              ACCESS:SEQUENTIAL          

 OPENING Griftpark_doubleQ.hds
 FILE TYPE:DATA(BINARY)   UNIT   51   STATUS:REPLACE
 FORMAT:UNFORMATTED            ACCESS:STREAM              

 OPENING Griftpark_doubleQ.cbc
 FILE TYPE:DATA(BINARY)   UNIT 1001   STATUS:REPLACE
 FORMAT:UNFORMATTED            ACCESS:STREAM              

 BAS -- BASIC PACKAGE, VERSION 7, 5/2/2005 INPUT READ FROM UNIT   13
 
 MODFLOW was compiled using mixed precision
 Precision of REAL variables:           6
 Precision of DOUBLE PRECISION variables:          15

 DISCRETIZATION INPUT DATA READ FROM UNIT   11
 # DIS package for  MODFLOW-2005, generated by Flopy.
   29 LAYERS       158 ROWS        90 COLUMNS
    1 STRESS PERIOD(S) IN SIMULATION
 MODEL TIME UNIT IS DAYS
 MODEL LENGTH UNIT IS METERS
  Confining bed flag for each layer:
   0   0   0   0   0   0   0   0   0   0   0   0   0   0   0   0   0   0   0   0
   0   0   0   0   0   0   0   0   0



                               DELR
 READING ON UNIT   11 WITH FORMAT: (90E15.6)           



                               DELC
 READING ON UNIT   11 WITH FORMAT: (158E15.6)          

 TOP ELEVATION OF LAYER 1 =   2.50000    

   MODEL LAYER BOTTOM EL. =  -2.50000     FOR LAYER   1

   MODEL LAYER BOTTOM EL. =  -5.00000     FOR LAYER   2

   MODEL LAYER BOTTOM EL. =  -7.50000     FOR LAYER   3

   MODEL LAYER BOTTOM EL. =  -10.0000     FOR LAYER   4

   MODEL LAYER BOTTOM EL. =  -12.5000     FOR LAYER   5

   MODEL LAYER BOTTOM EL. =  -15.0000     FOR LAYER   6

   MODEL LAYER BOTTOM EL. =  -17.5000     FOR LAYER   7

   MODEL LAYER BOTTOM EL. =  -20.0000     FOR LAYER   8

   MODEL LAYER BOTTOM EL. =  -22.5000     FOR LAYER   9

   MODEL LAYER BOTTOM EL. =  -25.0000     FOR LAYER  10

   MODEL LAYER BOTTOM EL. =  -27.5000     FOR LAYER  11

   MODEL LAYER BOTTOM EL. =  -30.0000     FOR LAYER  12

   MODEL LAYER BOTTOM EL. =  -32.5000     FOR LAYER  13

   MODEL LAYER BOTTOM EL. =  -35.0000     FOR LAYER  14

   MODEL LAYER BOTTOM EL. =  -37.5000     FOR LAYER  15

   MODEL LAYER BOTTOM EL. =  -40.0000     FOR LAYER  16

   MODEL LAYER BOTTOM EL. =  -42.5000     FOR LAYER  17

   MODEL LAYER BOTTOM EL. =  -45.0000     FOR LAYER  18

   MODEL LAYER BOTTOM EL. =  -47.5000     FOR LAYER  19

   MODEL LAYER BOTTOM EL. =  -50.0000     FOR LAYER  20

   MODEL LAYER BOTTOM EL. =  -52.5000     FOR LAYER  21

   MODEL LAYER BOTTOM EL. =  -55.0000     FOR LAYER  22

   MODEL LAYER BOTTOM EL. =  -57.5000     FOR LAYER  23

   MODEL LAYER BOTTOM EL. =  -60.0000     FOR LAYER  24

   MODEL LAYER BOTTOM EL. =  -68.0000     FOR LAYER  25

   MODEL LAYER BOTTOM EL. =  -76.0000     FOR LAYER  26

   MODEL LAYER BOTTOM EL. =  -84.0000     FOR LAYER  27

   MODEL LAYER BOTTOM EL. =  -92.0000     FOR LAYER  28

   MODEL LAYER BOTTOM EL. =  -100.000     FOR LAYER  29


 STRESS PERIOD     LENGTH       TIME STEPS     MULTIPLIER FOR DELT    SS FLAG
 ----------------------------------------------------------------------------
        1         10950.00          1                    1.000         SS

 STEADY-STATE SIMULATION



 
 # BAS6 package for  MODFLOW-2005, generated by Flopy.                           
 THE FREE FORMAT OPTION HAS BEEN SELECTED



                     BOUNDARY ARRAY FOR LAYER   1
 READING ON UNIT   13 WITH FORMAT: (90I10)             



                     BOUNDARY ARRAY FOR LAYER   2
 READING ON UNIT   13 WITH FORMAT: (90I10)             



                     BOUNDARY ARRAY FOR LAYER   3
 READING ON UNIT   13 WITH FORMAT: (90I10)             



                     BOUNDARY ARRAY FOR LAYER   4
 READING ON UNIT   13 WITH FORMAT: (90I10)             



                     BOUNDARY ARRAY FOR LAYER   5
 READING ON UNIT   13 WITH FORMAT: (90I10)             



                     BOUNDARY ARRAY FOR LAYER   6
 READING ON UNIT   13 WITH FORMAT: (90I10)             



                     BOUNDARY ARRAY FOR LAYER   7
 READING ON UNIT   13 WITH FORMAT: (90I10)             



                     BOUNDARY ARRAY FOR LAYER   8
 READING ON UNIT   13 WITH FORMAT: (90I10)             



                     BOUNDARY ARRAY FOR LAYER   9
 READING ON UNIT   13 WITH FORMAT: (90I10)             



                     BOUNDARY ARRAY FOR LAYER  10
 READING ON UNIT   13 WITH FORMAT: (90I10)             



                     BOUNDARY ARRAY FOR LAYER  11
 READING ON UNIT   13 WITH FORMAT: (90I10)             



                     BOUNDARY ARRAY FOR LAYER  12
 READING ON UNIT   13 WITH FORMAT: (90I10)             



                     BOUNDARY ARRAY FOR LAYER  13
 READING ON UNIT   13 WITH FORMAT: (90I10)             



                     BOUNDARY ARRAY FOR LAYER  14
 READING ON UNIT   13 WITH FORMAT: (90I10)             



                     BOUNDARY ARRAY FOR LAYER  15
 READING ON UNIT   13 WITH FORMAT: (90I10)             



                     BOUNDARY ARRAY FOR LAYER  16
 READING ON UNIT   13 WITH FORMAT: (90I10)             



                     BOUNDARY ARRAY FOR LAYER  17
 READING ON UNIT   13 WITH FORMAT: (90I10)             



                     BOUNDARY ARRAY FOR LAYER  18
 READING ON UNIT   13 WITH FORMAT: (90I10)             



                     BOUNDARY ARRAY FOR LAYER  19
 READING ON UNIT   13 WITH FORMAT: (90I10)             



                     BOUNDARY ARRAY FOR LAYER  20
 READING ON UNIT   13 WITH FORMAT: (90I10)             



                     BOUNDARY ARRAY FOR LAYER  21
 READING ON UNIT   13 WITH FORMAT: (90I10)             



                     BOUNDARY ARRAY FOR LAYER  22
 READING ON UNIT   13 WITH FORMAT: (90I10)             



                     BOUNDARY ARRAY FOR LAYER  23
 READING ON UNIT   13 WITH FORMAT: (90I10)             



                     BOUNDARY ARRAY FOR LAYER  24
 READING ON UNIT   13 WITH FORMAT: (90I10)             



                     BOUNDARY ARRAY FOR LAYER  25
 READING ON UNIT   13 WITH FORMAT: (90I10)             



                     BOUNDARY ARRAY FOR LAYER  26
 READING ON UNIT   13 WITH FORMAT: (90I10)             



                     BOUNDARY ARRAY FOR LAYER  27
 READING ON UNIT   13 WITH FORMAT: (90I10)             



                     BOUNDARY ARRAY FOR LAYER  28
 READING ON UNIT   13 WITH FORMAT: (90I10)             



                     BOUNDARY ARRAY FOR LAYER  29
 READING ON UNIT   13 WITH FORMAT: (90I10)             

 AQUIFER HEAD WILL BE SET TO  -999.99     AT ALL NO-FLOW NODES (IBOUND=0).



                       INITIAL HEAD FOR LAYER   1
 READING ON UNIT   13 WITH FORMAT: (90E15.6)           



                       INITIAL HEAD FOR LAYER   2
 READING ON UNIT   13 WITH FORMAT: (90E15.6)           



                       INITIAL HEAD FOR LAYER   3
 READING ON UNIT   13 WITH FORMAT: (90E15.6)           



                       INITIAL HEAD FOR LAYER   4
 READING ON UNIT   13 WITH FORMAT: (90E15.6)           



                       INITIAL HEAD FOR LAYER   5
 READING ON UNIT   13 WITH FORMAT: (90E15.6)           



                       INITIAL HEAD FOR LAYER   6
 READING ON UNIT   13 WITH FORMAT: (90E15.6)           



                       INITIAL HEAD FOR LAYER   7
 READING ON UNIT   13 WITH FORMAT: (90E15.6)           



                       INITIAL HEAD FOR LAYER   8
 READING ON UNIT   13 WITH FORMAT: (90E15.6)           



                       INITIAL HEAD FOR LAYER   9
 READING ON UNIT   13 WITH FORMAT: (90E15.6)           



                       INITIAL HEAD FOR LAYER  10
 READING ON UNIT   13 WITH FORMAT: (90E15.6)           



                       INITIAL HEAD FOR LAYER  11
 READING ON UNIT   13 WITH FORMAT: (90E15.6)           



                       INITIAL HEAD FOR LAYER  12
 READING ON UNIT   13 WITH FORMAT: (90E15.6)           



                       INITIAL HEAD FOR LAYER  13
 READING ON UNIT   13 WITH FORMAT: (90E15.6)           



                       INITIAL HEAD FOR LAYER  14
 READING ON UNIT   13 WITH FORMAT: (90E15.6)           



                       INITIAL HEAD FOR LAYER  15
 READING ON UNIT   13 WITH FORMAT: (90E15.6)           



                       INITIAL HEAD FOR LAYER  16
 READING ON UNIT   13 WITH FORMAT: (90E15.6)           



                       INITIAL HEAD FOR LAYER  17
 READING ON UNIT   13 WITH FORMAT: (90E15.6)           



                       INITIAL HEAD FOR LAYER  18
 READING ON UNIT   13 WITH FORMAT: (90E15.6)           



                       INITIAL HEAD FOR LAYER  19
 READING ON UNIT   13 WITH FORMAT: (90E15.6)           



                       INITIAL HEAD FOR LAYER  20
 READING ON UNIT   13 WITH FORMAT: (90E15.6)           



                       INITIAL HEAD FOR LAYER  21
 READING ON UNIT   13 WITH FORMAT: (90E15.6)           



                       INITIAL HEAD FOR LAYER  22
 READING ON UNIT   13 WITH FORMAT: (90E15.6)           



                       INITIAL HEAD FOR LAYER  23
 READING ON UNIT   13 WITH FORMAT: (90E15.6)           



                       INITIAL HEAD FOR LAYER  24
 READING ON UNIT   13 WITH FORMAT: (90E15.6)           



                       INITIAL HEAD FOR LAYER  25
 READING ON UNIT   13 WITH FORMAT: (90E15.6)           



                       INITIAL HEAD FOR LAYER  26
 READING ON UNIT   13 WITH FORMAT: (90E15.6)           



                       INITIAL HEAD FOR LAYER  27
 READING ON UNIT   13 WITH FORMAT: (90E15.6)           



                       INITIAL HEAD FOR LAYER  28
 READING ON UNIT   13 WITH FORMAT: (90E15.6)           



                       INITIAL HEAD FOR LAYER  29
 READING ON UNIT   13 WITH FORMAT: (90E15.6)           
 # OC package for  MODFLOW-2005, generated by Flopy.

 OUTPUT CONTROL IS SPECIFIED ONLY AT TIME STEPS FOR WHICH OUTPUT IS DESIRED
 COMPACT CELL-BY-CELL BUDGET FILES WILL BE WRITTEN
 AUXILIARY DATA WILL BE SAVED IN CELL-BY-CELL BUDGET FILES
 HEAD PRINT FORMAT CODE IS   0    DRAWDOWN PRINT FORMAT CODE IS   0
 HEADS WILL BE SAVED ON UNIT   51    DRAWDOWNS WILL BE SAVED ON UNIT    0

 LPF -- LAYER-PROPERTY FLOW PACKAGE, VERSION 7, 5/2/2005
         INPUT READ FROM UNIT   15
 # LPF package for  MODFLOW-2005, generated by Flopy.
 CELL-BY-CELL FLOWS WILL BE SAVED ON UNIT 1001
 HEAD AT CELLS THAT CONVERT TO DRY= -1.00000E+30
 No named parameters

   LAYER FLAGS:
 LAYER       LAYTYP        LAYAVG         CHANI        LAYVKA        LAYWET
 ---------------------------------------------------------------------------
    1             0             0     1.000E+00             0             0
    2             0             0     1.000E+00             0             0
    3             0             0     1.000E+00             0             0
    4             0             0     1.000E+00             0             0
    5             0             0     1.000E+00             0             0
    6             0             0     1.000E+00             0             0
    7             0             0     1.000E+00             0             0
    8             0             0     1.000E+00             0             0
    9             0             0     1.000E+00             0             0
   10             0             0     1.000E+00             0             0
   11             0             0     1.000E+00             0             0
   12             0             0     1.000E+00             0             0
   13             0             0     1.000E+00             0             0
   14             0             0     1.000E+00             0             0
   15             0             0     1.000E+00             0             0
   16             0             0     1.000E+00             0             0
   17             0             0     1.000E+00             0             0
   18             0             0     1.000E+00             0             0
   19             0             0     1.000E+00             0             0
   20             0             0     1.000E+00             0             0
   21             0             0     1.000E+00             0             0
   22             0             0     1.000E+00             0             0
   23             0             0     1.000E+00             0             0
   24             0             0     1.000E+00             0             0
   25             0             0     1.000E+00             0             0
   26             0             0     1.000E+00             0             0
   27             0             0     1.000E+00             0             0
   28             0             0     1.000E+00             0             0
   29             0             0     1.000E+00             0             0

   INTERPRETATION OF LAYER FLAGS:
                        INTERBLOCK     HORIZONTAL    DATA IN
         LAYER TYPE   TRANSMISSIVITY   ANISOTROPY   ARRAY VKA   WETTABILITY
 LAYER      (LAYTYP)      (LAYAVG)       (CHANI)      (LAYVKA)      (LAYWET)
 ---------------------------------------------------------------------------
    1      CONFINED      HARMONIC     1.000E+00    VERTICAL K  NON-WETTABLE
    2      CONFINED      HARMONIC     1.000E+00    VERTICAL K  NON-WETTABLE
    3      CONFINED      HARMONIC     1.000E+00    VERTICAL K  NON-WETTABLE
    4      CONFINED      HARMONIC     1.000E+00    VERTICAL K  NON-WETTABLE
    5      CONFINED      HARMONIC     1.000E+00    VERTICAL K  NON-WETTABLE
    6      CONFINED      HARMONIC     1.000E+00    VERTICAL K  NON-WETTABLE
    7      CONFINED      HARMONIC     1.000E+00    VERTICAL K  NON-WETTABLE
    8      CONFINED      HARMONIC     1.000E+00    VERTICAL K  NON-WETTABLE
    9      CONFINED      HARMONIC     1.000E+00    VERTICAL K  NON-WETTABLE
   10      CONFINED      HARMONIC     1.000E+00    VERTICAL K  NON-WETTABLE
   11      CONFINED      HARMONIC     1.000E+00    VERTICAL K  NON-WETTABLE
   12      CONFINED      HARMONIC     1.000E+00    VERTICAL K  NON-WETTABLE
   13      CONFINED      HARMONIC     1.000E+00    VERTICAL K  NON-WETTABLE
   14      CONFINED      HARMONIC     1.000E+00    VERTICAL K  NON-WETTABLE
   15      CONFINED      HARMONIC     1.000E+00    VERTICAL K  NON-WETTABLE
   16      CONFINED      HARMONIC     1.000E+00    VERTICAL K  NON-WETTABLE
   17      CONFINED      HARMONIC     1.000E+00    VERTICAL K  NON-WETTABLE
   18      CONFINED      HARMONIC     1.000E+00    VERTICAL K  NON-WETTABLE
   19      CONFINED      HARMONIC     1.000E+00    VERTICAL K  NON-WETTABLE
   20      CONFINED      HARMONIC     1.000E+00    VERTICAL K  NON-WETTABLE
   21      CONFINED      HARMONIC     1.000E+00    VERTICAL K  NON-WETTABLE
   22      CONFINED      HARMONIC     1.000E+00    VERTICAL K  NON-WETTABLE
   23      CONFINED      HARMONIC     1.000E+00    VERTICAL K  NON-WETTABLE
   24      CONFINED      HARMONIC     1.000E+00    VERTICAL K  NON-WETTABLE
   25      CONFINED      HARMONIC     1.000E+00    VERTICAL K  NON-WETTABLE
   26      CONFINED      HARMONIC     1.000E+00    VERTICAL K  NON-WETTABLE
   27      CONFINED      HARMONIC     1.000E+00    VERTICAL K  NON-WETTABLE
   28      CONFINED      HARMONIC     1.000E+00    VERTICAL K  NON-WETTABLE
   29      CONFINED      HARMONIC     1.000E+00    VERTICAL K  NON-WETTABLE

 WETTING CAPABILITY IS NOT ACTIVE IN ANY LAYER



              HYD. COND. ALONG ROWS FOR LAYER   1
 READING ON UNIT   15 WITH FORMAT: (90E15.6)           



                VERTICAL HYD. COND. FOR LAYER   1
 READING ON UNIT   15 WITH FORMAT: (90E15.6)           



              HYD. COND. ALONG ROWS FOR LAYER   2
 READING ON UNIT   15 WITH FORMAT: (90E15.6)           



                VERTICAL HYD. COND. FOR LAYER   2
 READING ON UNIT   15 WITH FORMAT: (90E15.6)           



              HYD. COND. ALONG ROWS FOR LAYER   3
 READING ON UNIT   15 WITH FORMAT: (90E15.6)           



                VERTICAL HYD. COND. FOR LAYER   3
 READING ON UNIT   15 WITH FORMAT: (90E15.6)           



              HYD. COND. ALONG ROWS FOR LAYER   4
 READING ON UNIT   15 WITH FORMAT: (90E15.6)           



                VERTICAL HYD. COND. FOR LAYER   4
 READING ON UNIT   15 WITH FORMAT: (90E15.6)           



              HYD. COND. ALONG ROWS FOR LAYER   5
 READING ON UNIT   15 WITH FORMAT: (90E15.6)           



                VERTICAL HYD. COND. FOR LAYER   5
 READING ON UNIT   15 WITH FORMAT: (90E15.6)           



              HYD. COND. ALONG ROWS FOR LAYER   6
 READING ON UNIT   15 WITH FORMAT: (90E15.6)           



                VERTICAL HYD. COND. FOR LAYER   6
 READING ON UNIT   15 WITH FORMAT: (90E15.6)           



              HYD. COND. ALONG ROWS FOR LAYER   7
 READING ON UNIT   15 WITH FORMAT: (90E15.6)           



                VERTICAL HYD. COND. FOR LAYER   7
 READING ON UNIT   15 WITH FORMAT: (90E15.6)           



              HYD. COND. ALONG ROWS FOR LAYER   8
 READING ON UNIT   15 WITH FORMAT: (90E15.6)           



                VERTICAL HYD. COND. FOR LAYER   8
 READING ON UNIT   15 WITH FORMAT: (90E15.6)           



              HYD. COND. ALONG ROWS FOR LAYER   9
 READING ON UNIT   15 WITH FORMAT: (90E15.6)           



                VERTICAL HYD. COND. FOR LAYER   9
 READING ON UNIT   15 WITH FORMAT: (90E15.6)           



              HYD. COND. ALONG ROWS FOR LAYER  10
 READING ON UNIT   15 WITH FORMAT: (90E15.6)           



                VERTICAL HYD. COND. FOR LAYER  10
 READING ON UNIT   15 WITH FORMAT: (90E15.6)           



              HYD. COND. ALONG ROWS FOR LAYER  11
 READING ON UNIT   15 WITH FORMAT: (90E15.6)           



                VERTICAL HYD. COND. FOR LAYER  11
 READING ON UNIT   15 WITH FORMAT: (90E15.6)           



              HYD. COND. ALONG ROWS FOR LAYER  12
 READING ON UNIT   15 WITH FORMAT: (90E15.6)           



                VERTICAL HYD. COND. FOR LAYER  12
 READING ON UNIT   15 WITH FORMAT: (90E15.6)           



              HYD. COND. ALONG ROWS FOR LAYER  13
 READING ON UNIT   15 WITH FORMAT: (90E15.6)           



                VERTICAL HYD. COND. FOR LAYER  13
 READING ON UNIT   15 WITH FORMAT: (90E15.6)           



              HYD. COND. ALONG ROWS FOR LAYER  14
 READING ON UNIT   15 WITH FORMAT: (90E15.6)           



                VERTICAL HYD. COND. FOR LAYER  14
 READING ON UNIT   15 WITH FORMAT: (90E15.6)           



              HYD. COND. ALONG ROWS FOR LAYER  15
 READING ON UNIT   15 WITH FORMAT: (90E15.6)           



                VERTICAL HYD. COND. FOR LAYER  15
 READING ON UNIT   15 WITH FORMAT: (90E15.6)           



              HYD. COND. ALONG ROWS FOR LAYER  16
 READING ON UNIT   15 WITH FORMAT: (90E15.6)           



                VERTICAL HYD. COND. FOR LAYER  16
 READING ON UNIT   15 WITH FORMAT: (90E15.6)           



              HYD. COND. ALONG ROWS FOR LAYER  17
 READING ON UNIT   15 WITH FORMAT: (90E15.6)           



                VERTICAL HYD. COND. FOR LAYER  17
 READING ON UNIT   15 WITH FORMAT: (90E15.6)           



              HYD. COND. ALONG ROWS FOR LAYER  18
 READING ON UNIT   15 WITH FORMAT: (90E15.6)           



                VERTICAL HYD. COND. FOR LAYER  18
 READING ON UNIT   15 WITH FORMAT: (90E15.6)           



              HYD. COND. ALONG ROWS FOR LAYER  19
 READING ON UNIT   15 WITH FORMAT: (90E15.6)           



                VERTICAL HYD. COND. FOR LAYER  19
 READING ON UNIT   15 WITH FORMAT: (90E15.6)           



              HYD. COND. ALONG ROWS FOR LAYER  20
 READING ON UNIT   15 WITH FORMAT: (90E15.6)           



                VERTICAL HYD. COND. FOR LAYER  20
 READING ON UNIT   15 WITH FORMAT: (90E15.6)           



              HYD. COND. ALONG ROWS FOR LAYER  21
 READING ON UNIT   15 WITH FORMAT: (90E15.6)           



                VERTICAL HYD. COND. FOR LAYER  21
 READING ON UNIT   15 WITH FORMAT: (90E15.6)           



              HYD. COND. ALONG ROWS FOR LAYER  22
 READING ON UNIT   15 WITH FORMAT: (90E15.6)           



                VERTICAL HYD. COND. FOR LAYER  22
 READING ON UNIT   15 WITH FORMAT: (90E15.6)           



              HYD. COND. ALONG ROWS FOR LAYER  23
 READING ON UNIT   15 WITH FORMAT: (90E15.6)           



                VERTICAL HYD. COND. FOR LAYER  23
 READING ON UNIT   15 WITH FORMAT: (90E15.6)           



              HYD. COND. ALONG ROWS FOR LAYER  24
 READING ON UNIT   15 WITH FORMAT: (90E15.6)           



                VERTICAL HYD. COND. FOR LAYER  24
 READING ON UNIT   15 WITH FORMAT: (90E15.6)           



              HYD. COND. ALONG ROWS FOR LAYER  25
 READING ON UNIT   15 WITH FORMAT: (90E15.6)           



                VERTICAL HYD. COND. FOR LAYER  25
 READING ON UNIT   15 WITH FORMAT: (90E15.6)           



              HYD. COND. ALONG ROWS FOR LAYER  26
 READING ON UNIT   15 WITH FORMAT: (90E15.6)           



                VERTICAL HYD. COND. FOR LAYER  26
 READING ON UNIT   15 WITH FORMAT: (90E15.6)           



              HYD. COND. ALONG ROWS FOR LAYER  27
 READING ON UNIT   15 WITH FORMAT: (90E15.6)           



                VERTICAL HYD. COND. FOR LAYER  27
 READING ON UNIT   15 WITH FORMAT: (90E15.6)           



              HYD. COND. ALONG ROWS FOR LAYER  28
 READING ON UNIT   15 WITH FORMAT: (90E15.6)           



                VERTICAL HYD. COND. FOR LAYER  28
 READING ON UNIT   15 WITH FORMAT: (90E15.6)           



              HYD. COND. ALONG ROWS FOR LAYER  29
 READING ON UNIT   15 WITH FORMAT: (90E15.6)           



                VERTICAL HYD. COND. FOR LAYER  29
 READING ON UNIT   15 WITH FORMAT: (90E15.6)           

 WEL -- WELL PACKAGE, VERSION 7, 5/2/2005 INPUT READ FROM UNIT   20
 # WEL package for  MODFLOW-2005, generated by Flopy.
 No named parameters
 MAXIMUM OF     30 ACTIVE WELLS AT ONE TIME
 CELL-BY-CELL FLOWS WILL BE SAVED ON UNIT 1001


     0 Well parameters

 RCH -- RECHARGE PACKAGE, VERSION 7, 5/2/2005 INPUT READ FROM UNIT   19
 # RCH package for  MODFLOW-2005, generated by Flopy.
 No named parameters
 OPTION 3 -- RECHARGE TO HIGHEST ACTIVE NODE IN EACH VERTICAL COLUMN
 CELL-BY-CELL FLOWS WILL BE SAVED ON UNIT 1001


     0 Recharge parameters

 HFB -- HORIZONTAL-FLOW BARRIER PACKAGE, VERSION 7, 5/2/2005.
   INPUT READ FROM UNIT   29
 # HFB6 package for  MODFLOW-2005, generated by Flopy.
     0 PARAMETERS DEFINE A MAXIMUM OF      0 HORIZONTAL FLOW BARRIERS
   6160 HORIZONTAL FLOW BARRIERS NOT DEFINED BY PARAMETERS


     0 HFB parameters

   6160 BARRIERS NOT DEFINED BY PARAMETERS

 BARRIER  LAYER  IROW1  ICOL1  IROW2  ICOL2    HYDCHR
 -------------------------------------------------------
      1      1      29     52     29     53   1.0000E-03
      2      2      29     52     29     53   1.0000E-03
      3      3      29     52     29     53   1.0000E-03
      4      4      29     52     29     53   1.0000E-03
      5      5      29     52     29     53   1.0000E-03
      6      6      29     52     29     53   1.0000E-03
      7      7      29     52     29     53   1.0000E-03
      8      8      29     52     29     53   1.0000E-03
      9      9      29     52     29     53   1.0000E-03
     10     10      29     52     29     53   1.0000E-03
     11     11      29     52     29     53   1.0000E-03
     12     12      29     52     29     53   1.0000E-03
     13     13      29     52     29     53   1.0000E-03
     14     14      29     52     29     53   1.0000E-03
     15     15      29     52     29     53   1.0000E-03
     16     16      29     52     29     53   1.0000E-03
     17     17      29     52     29     53   1.0000E-03
     18     18      29     52     29     53   1.0000E-03
     19     19      29     52     29     53   1.0000E-03
     20     20      29     52     29     53   1.0000E-03
     21      1      29     53     29     54   1.0000E-03
     22      2      29     53     29     54   1.0000E-03
     23      3      29     53     29     54   1.0000E-03
     24      4      29     53     29     54   1.0000E-03
     25      5      29     53     29     54   1.0000E-03
     26      6      29     53     29     54   1.0000E-03
     27      7      29     53     29     54   1.0000E-03
     28      8      29     53     29     54   1.0000E-03
     29      9      29     53     29     54   1.0000E-03
     30     10      29     53     29     54   1.0000E-03
     31     11      29     53     29     54   1.0000E-03
     32     12      29     53     29     54   1.0000E-03
     33     13      29     53     29     54   1.0000E-03
     34     14      29     53     29     54   1.0000E-03
     35     15      29     53     29     54   1.0000E-03
     36     16      29     53     29     54   1.0000E-03
     37     17      29     53     29     54   1.0000E-03
     38     18      29     53     29     54   1.0000E-03
     39     19      29     53     29     54   1.0000E-03
     40     20      29     53     29     54   1.0000E-03
     41      1      28     53     29     53   1.0000E-03
     42      2      28     53     29     53   1.0000E-03
     43      3      28     53     29     53   1.0000E-03
     44      4      28     53     29     53   1.0000E-03
     45      5      28     53     29     53   1.0000E-03
     46      6      28     53     29     53   1.0000E-03
     47      7      28     53     29     53   1.0000E-03
     48      8      28     53     29     53   1.0000E-03
     49      9      28     53     29     53   1.0000E-03
     50     10      28     53     29     53   1.0000E-03
     51     11      28     53     29     53   1.0000E-03
     52     12      28     53     29     53   1.0000E-03
     53     13      28     53     29     53   1.0000E-03
     54     14      28     53     29     53   1.0000E-03
     55     15      28     53     29     53   1.0000E-03
     56     16      28     53     29     53   1.0000E-03
     57     17      28     53     29     53   1.0000E-03
     58     18      28     53     29     53   1.0000E-03
     59     19      28     53     29     53   1.0000E-03
     60     20      28     53     29     53   1.0000E-03
     61      1      30     35     30     36   1.0000E-03
     62      2      30     35     30     36   1.0000E-03
     63      3      30     35     30     36   1.0000E-03
     64      4      30     35     30     36   1.0000E-03
     65      5      30     35     30     36   1.0000E-03
     66      6      30     35     30     36   1.0000E-03
     67      7      30     35     30     36   1.0000E-03
     68      8      30     35     30     36   1.0000E-03
     69      9      30     35     30     36   1.0000E-03
     70     10      30     35     30     36   1.0000E-03
     71     11      30     35     30     36   1.0000E-03
     72     12      30     35     30     36   1.0000E-03
     73     13      30     35     30     36   1.0000E-03
     74     14      30     35     30     36   1.0000E-03
     75     15      30     35     30     36   1.0000E-03
     76     16      30     35     30     36   1.0000E-03
     77     17      30     35     30     36   1.0000E-03
     78     18      30     35     30     36   1.0000E-03
     79     19      30     35     30     36   1.0000E-03
     80     20      30     35     30     36   1.0000E-03
     81      1      30     36     30     37   1.0000E-03
     82      2      30     36     30     37   1.0000E-03
     83      3      30     36     30     37   1.0000E-03
     84      4      30     36     30     37   1.0000E-03
     85      5      30     36     30     37   1.0000E-03
     86      6      30     36     30     37   1.0000E-03
     87      7      30     36     30     37   1.0000E-03
     88      8      30     36     30     37   1.0000E-03
     89      9      30     36     30     37   1.0000E-03
     90     10      30     36     30     37   1.0000E-03
     91     11      30     36     30     37   1.0000E-03
     92     12      30     36     30     37   1.0000E-03
     93     13      30     36     30     37   1.0000E-03
     94     14      30     36     30     37   1.0000E-03
     95     15      30     36     30     37   1.0000E-03
     96     16      30     36     30     37   1.0000E-03
     97     17      30     36     30     37   1.0000E-03
     98     18      30     36     30     37   1.0000E-03
     99     19      30     36     30     37   1.0000E-03
    100     20      30     36     30     37   1.0000E-03
    101      1      29     36     30     36   1.0000E-03
    102      2      29     36     30     36   1.0000E-03
    103      3      29     36     30     36   1.0000E-03
    104      4      29     36     30     36   1.0000E-03
    105      5      29     36     30     36   1.0000E-03
    106      6      29     36     30     36   1.0000E-03
    107      7      29     36     30     36   1.0000E-03
    108      8      29     36     30     36   1.0000E-03
    109      9      29     36     30     36   1.0000E-03
    110     10      29     36     30     36   1.0000E-03
    111     11      29     36     30     36   1.0000E-03
    112     12      29     36     30     36   1.0000E-03
    113     13      29     36     30     36   1.0000E-03
    114     14      29     36     30     36   1.0000E-03
    115     15      29     36     30     36   1.0000E-03
    116     16      29     36     30     36   1.0000E-03
    117     17      29     36     30     36   1.0000E-03
    118     18      29     36     30     36   1.0000E-03
    119     19      29     36     30     36   1.0000E-03
    120     20      29     36     30     36   1.0000E-03
    121      1      30     51     30     52   1.0000E-03
    122      2      30     51     30     52   1.0000E-03
    123      3      30     51     30     52   1.0000E-03
    124      4      30     51     30     52   1.0000E-03
    125      5      30     51     30     52   1.0000E-03
    126      6      30     51     30     52   1.0000E-03
    127      7      30     51     30     52   1.0000E-03
    128      8      30     51     30     52   1.0000E-03
    129      9      30     51     30     52   1.0000E-03
    130     10      30     51     30     52   1.0000E-03
    131     11      30     51     30     52   1.0000E-03
    132     12      30     51     30     52   1.0000E-03
    133     13      30     51     30     52   1.0000E-03
    134     14      30     51     30     52   1.0000E-03
    135     15      30     51     30     52   1.0000E-03
    136     16      30     51     30     52   1.0000E-03
    137     17      30     51     30     52   1.0000E-03
    138     18      30     51     30     52   1.0000E-03
    139     19      30     51     30     52   1.0000E-03
    140     20      30     51     30     52   1.0000E-03
    141      1      29     52     30     52   1.0000E-03
    142      2      29     52     30     52   1.0000E-03
    143      3      29     52     30     52   1.0000E-03
    144      4      29     52     30     52   1.0000E-03
    145      5      29     52     30     52   1.0000E-03
    146      6      29     52     30     52   1.0000E-03
    147      7      29     52     30     52   1.0000E-03
    148      8      29     52     30     52   1.0000E-03
    149      9      29     52     30     52   1.0000E-03
    150     10      29     52     30     52   1.0000E-03
    151     11      29     52     30     52   1.0000E-03
    152     12      29     52     30     52   1.0000E-03
    153     13      29     52     30     52   1.0000E-03
    154     14      29     52     30     52   1.0000E-03
    155     15      29     52     30     52   1.0000E-03
    156     16      29     52     30     52   1.0000E-03
    157     17      29     52     30     52   1.0000E-03
    158     18      29     52     30     52   1.0000E-03
    159     19      29     52     30     52   1.0000E-03
    160     20      29     52     30     52   1.0000E-03
    161      1      30     54     30     55   1.0000E-03
    162      2      30     54     30     55   1.0000E-03
    163      3      30     54     30     55   1.0000E-03
    164      4      30     54     30     55   1.0000E-03
    165      5      30     54     30     55   1.0000E-03
    166      6      30     54     30     55   1.0000E-03
    167      7      30     54     30     55   1.0000E-03
    168      8      30     54     30     55   1.0000E-03
    169      9      30     54     30     55   1.0000E-03
    170     10      30     54     30     55   1.0000E-03
    171     11      30     54     30     55   1.0000E-03
    172     12      30     54     30     55   1.0000E-03
    173     13      30     54     30     55   1.0000E-03
    174     14      30     54     30     55   1.0000E-03
    175     15      30     54     30     55   1.0000E-03
    176     16      30     54     30     55   1.0000E-03
    177     17      30     54     30     55   1.0000E-03
    178     18      30     54     30     55   1.0000E-03
    179     19      30     54     30     55   1.0000E-03
    180     20      30     54     30     55   1.0000E-03
    181      1      29     54     30     54   1.0000E-03
    182      2      29     54     30     54   1.0000E-03
    183      3      29     54     30     54   1.0000E-03
    184      4      29     54     30     54   1.0000E-03
    185      5      29     54     30     54   1.0000E-03
    186      6      29     54     30     54   1.0000E-03
    187      7      29     54     30     54   1.0000E-03
    188      8      29     54     30     54   1.0000E-03
    189      9      29     54     30     54   1.0000E-03
    190     10      29     54     30     54   1.0000E-03
    191     11      29     54     30     54   1.0000E-03
    192     12      29     54     30     54   1.0000E-03
    193     13      29     54     30     54   1.0000E-03
    194     14      29     54     30     54   1.0000E-03
    195     15      29     54     30     54   1.0000E-03
    196     16      29     54     30     54   1.0000E-03
    197     17      29     54     30     54   1.0000E-03
    198     18      29     54     30     54   1.0000E-03
    199     19      29     54     30     54   1.0000E-03
    200     20      29     54     30     54   1.0000E-03
    201      1      31     35     31     36   1.0000E-03
    202      2      31     35     31     36   1.0000E-03
    203      3      31     35     31     36   1.0000E-03
    204      4      31     35     31     36   1.0000E-03
    205      5      31     35     31     36   1.0000E-03
    206      6      31     35     31     36   1.0000E-03
    207      7      31     35     31     36   1.0000E-03
    208      8      31     35     31     36   1.0000E-03
    209      9      31     35     31     36   1.0000E-03
    210     10      31     35     31     36   1.0000E-03
    211     11      31     35     31     36   1.0000E-03
    212     12      31     35     31     36   1.0000E-03
    213     13      31     35     31     36   1.0000E-03
    214     14      31     35     31     36   1.0000E-03
    215     15      31     35     31     36   1.0000E-03
    216     16      31     35     31     36   1.0000E-03
    217     17      31     35     31     36   1.0000E-03
    218     18      31     35     31     36   1.0000E-03
    219     19      31     35     31     36   1.0000E-03
    220     20      31     35     31     36   1.0000E-03
    221      1      30     37     31     37   1.0000E-03
    222      2      30     37     31     37   1.0000E-03
    223      3      30     37     31     37   1.0000E-03
    224      4      30     37     31     37   1.0000E-03
    225      5      30     37     31     37   1.0000E-03
    226      6      30     37     31     37   1.0000E-03
    227      7      30     37     31     37   1.0000E-03
    228      8      30     37     31     37   1.0000E-03
    229      9      30     37     31     37   1.0000E-03
    230     10      30     37     31     37   1.0000E-03
    231     11      30     37     31     37   1.0000E-03
    232     12      30     37     31     37   1.0000E-03
    233     13      30     37     31     37   1.0000E-03
    234     14      30     37     31     37   1.0000E-03
    235     15      30     37     31     37   1.0000E-03
    236     16      30     37     31     37   1.0000E-03
    237     17      30     37     31     37   1.0000E-03
    238     18      30     37     31     37   1.0000E-03
    239     19      30     37     31     37   1.0000E-03
    240     20      30     37     31     37   1.0000E-03
    241      1      30     38     31     38   1.0000E-03
    242      2      30     38     31     38   1.0000E-03
    243      3      30     38     31     38   1.0000E-03
    244      4      30     38     31     38   1.0000E-03
    245      5      30     38     31     38   1.0000E-03
    246      6      30     38     31     38   1.0000E-03
    247      7      30     38     31     38   1.0000E-03
    248      8      30     38     31     38   1.0000E-03
    249      9      30     38     31     38   1.0000E-03
    250     10      30     38     31     38   1.0000E-03
    251     11      30     38     31     38   1.0000E-03
    252     12      30     38     31     38   1.0000E-03
    253     13      30     38     31     38   1.0000E-03
    254     14      30     38     31     38   1.0000E-03
    255     15      30     38     31     38   1.0000E-03
    256     16      30     38     31     38   1.0000E-03
    257     17      30     38     31     38   1.0000E-03
    258     18      30     38     31     38   1.0000E-03
    259     19      30     38     31     38   1.0000E-03
    260     20      30     38     31     38   1.0000E-03
    261      1      30     39     31     39   1.0000E-03
    262      2      30     39     31     39   1.0000E-03
    263      3      30     39     31     39   1.0000E-03
    264      4      30     39     31     39   1.0000E-03
    265      5      30     39     31     39   1.0000E-03
    266      6      30     39     31     39   1.0000E-03
    267      7      30     39     31     39   1.0000E-03
    268      8      30     39     31     39   1.0000E-03
    269      9      30     39     31     39   1.0000E-03
    270     10      30     39     31     39   1.0000E-03
    271     11      30     39     31     39   1.0000E-03
    272     12      30     39     31     39   1.0000E-03
    273     13      30     39     31     39   1.0000E-03
    274     14      30     39     31     39   1.0000E-03
    275     15      30     39     31     39   1.0000E-03
    276     16      30     39     31     39   1.0000E-03
    277     17      30     39     31     39   1.0000E-03
    278     18      30     39     31     39   1.0000E-03
    279     19      30     39     31     39   1.0000E-03
    280     20      30     39     31     39   1.0000E-03
    281      1      30     40     31     40   1.0000E-03
    282      2      30     40     31     40   1.0000E-03
    283      3      30     40     31     40   1.0000E-03
    284      4      30     40     31     40   1.0000E-03
    285      5      30     40     31     40   1.0000E-03
    286      6      30     40     31     40   1.0000E-03
    287      7      30     40     31     40   1.0000E-03
    288      8      30     40     31     40   1.0000E-03
    289      9      30     40     31     40   1.0000E-03
    290     10      30     40     31     40   1.0000E-03
    291     11      30     40     31     40   1.0000E-03
    292     12      30     40     31     40   1.0000E-03
    293     13      30     40     31     40   1.0000E-03
    294     14      30     40     31     40   1.0000E-03
    295     15      30     40     31     40   1.0000E-03
    296     16      30     40     31     40   1.0000E-03
    297     17      30     40     31     40   1.0000E-03
    298     18      30     40     31     40   1.0000E-03
    299     19      30     40     31     40   1.0000E-03
    300     20      30     40     31     40   1.0000E-03
    301      1      30     41     31     41   1.0000E-03
    302      2      30     41     31     41   1.0000E-03
    303      3      30     41     31     41   1.0000E-03
    304      4      30     41     31     41   1.0000E-03
    305      5      30     41     31     41   1.0000E-03
    306      6      30     41     31     41   1.0000E-03
    307      7      30     41     31     41   1.0000E-03
    308      8      30     41     31     41   1.0000E-03
    309      9      30     41     31     41   1.0000E-03
    310     10      30     41     31     41   1.0000E-03
    311     11      30     41     31     41   1.0000E-03
    312     12      30     41     31     41   1.0000E-03
    313     13      30     41     31     41   1.0000E-03
    314     14      30     41     31     41   1.0000E-03
    315     15      30     41     31     41   1.0000E-03
    316     16      30     41     31     41   1.0000E-03
    317     17      30     41     31     41   1.0000E-03
    318     18      30     41     31     41   1.0000E-03
    319     19      30     41     31     41   1.0000E-03
    320     20      30     41     31     41   1.0000E-03
    321      1      30     42     31     42   1.0000E-03
    322      2      30     42     31     42   1.0000E-03
    323      3      30     42     31     42   1.0000E-03
    324      4      30     42     31     42   1.0000E-03
    325      5      30     42     31     42   1.0000E-03
    326      6      30     42     31     42   1.0000E-03
    327      7      30     42     31     42   1.0000E-03
    328      8      30     42     31     42   1.0000E-03
    329      9      30     42     31     42   1.0000E-03
    330     10      30     42     31     42   1.0000E-03
    331     11      30     42     31     42   1.0000E-03
    332     12      30     42     31     42   1.0000E-03
    333     13      30     42     31     42   1.0000E-03
    334     14      30     42     31     42   1.0000E-03
    335     15      30     42     31     42   1.0000E-03
    336     16      30     42     31     42   1.0000E-03
    337     17      30     42     31     42   1.0000E-03
    338     18      30     42     31     42   1.0000E-03
    339     19      30     42     31     42   1.0000E-03
    340     20      30     42     31     42   1.0000E-03
    341      1      30     43     31     43   1.0000E-03
    342      2      30     43     31     43   1.0000E-03
    343      3      30     43     31     43   1.0000E-03
    344      4      30     43     31     43   1.0000E-03
    345      5      30     43     31     43   1.0000E-03
    346      6      30     43     31     43   1.0000E-03
    347      7      30     43     31     43   1.0000E-03
    348      8      30     43     31     43   1.0000E-03
    349      9      30     43     31     43   1.0000E-03
    350     10      30     43     31     43   1.0000E-03
    351     11      30     43     31     43   1.0000E-03
    352     12      30     43     31     43   1.0000E-03
    353     13      30     43     31     43   1.0000E-03
    354     14      30     43     31     43   1.0000E-03
    355     15      30     43     31     43   1.0000E-03
    356     16      30     43     31     43   1.0000E-03
    357     17      30     43     31     43   1.0000E-03
    358     18      30     43     31     43   1.0000E-03
    359     19      30     43     31     43   1.0000E-03
    360     20      30     43     31     43   1.0000E-03
    361      1      30     44     31     44   1.0000E-03
    362      2      30     44     31     44   1.0000E-03
    363      3      30     44     31     44   1.0000E-03
    364      4      30     44     31     44   1.0000E-03
    365      5      30     44     31     44   1.0000E-03
    366      6      30     44     31     44   1.0000E-03
    367      7      30     44     31     44   1.0000E-03
    368      8      30     44     31     44   1.0000E-03
    369      9      30     44     31     44   1.0000E-03
    370     10      30     44     31     44   1.0000E-03
    371     11      30     44     31     44   1.0000E-03
    372     12      30     44     31     44   1.0000E-03
    373     13      30     44     31     44   1.0000E-03
    374     14      30     44     31     44   1.0000E-03
    375     15      30     44     31     44   1.0000E-03
    376     16      30     44     31     44   1.0000E-03
    377     17      30     44     31     44   1.0000E-03
    378     18      30     44     31     44   1.0000E-03
    379     19      30     44     31     44   1.0000E-03
    380     20      30     44     31     44   1.0000E-03
    381      1      30     45     31     45   1.0000E-03
    382      2      30     45     31     45   1.0000E-03
    383      3      30     45     31     45   1.0000E-03
    384      4      30     45     31     45   1.0000E-03
    385      5      30     45     31     45   1.0000E-03
    386      6      30     45     31     45   1.0000E-03
    387      7      30     45     31     45   1.0000E-03
    388      8      30     45     31     45   1.0000E-03
    389      9      30     45     31     45   1.0000E-03
    390     10      30     45     31     45   1.0000E-03
    391     11      30     45     31     45   1.0000E-03
    392     12      30     45     31     45   1.0000E-03
    393     13      30     45     31     45   1.0000E-03
    394     14      30     45     31     45   1.0000E-03
    395     15      30     45     31     45   1.0000E-03
    396     16      30     45     31     45   1.0000E-03
    397     17      30     45     31     45   1.0000E-03
    398     18      30     45     31     45   1.0000E-03
    399     19      30     45     31     45   1.0000E-03
    400     20      30     45     31     45   1.0000E-03
    401      1      30     46     31     46   1.0000E-03
    402      2      30     46     31     46   1.0000E-03
    403      3      30     46     31     46   1.0000E-03
    404      4      30     46     31     46   1.0000E-03
    405      5      30     46     31     46   1.0000E-03
    406      6      30     46     31     46   1.0000E-03
    407      7      30     46     31     46   1.0000E-03
    408      8      30     46     31     46   1.0000E-03
    409      9      30     46     31     46   1.0000E-03
    410     10      30     46     31     46   1.0000E-03
    411     11      30     46     31     46   1.0000E-03
    412     12      30     46     31     46   1.0000E-03
    413     13      30     46     31     46   1.0000E-03
    414     14      30     46     31     46   1.0000E-03
    415     15      30     46     31     46   1.0000E-03
    416     16      30     46     31     46   1.0000E-03
    417     17      30     46     31     46   1.0000E-03
    418     18      30     46     31     46   1.0000E-03
    419     19      30     46     31     46   1.0000E-03
    420     20      30     46     31     46   1.0000E-03
    421      1      30     47     31     47   1.0000E-03
    422      2      30     47     31     47   1.0000E-03
    423      3      30     47     31     47   1.0000E-03
    424      4      30     47     31     47   1.0000E-03
    425      5      30     47     31     47   1.0000E-03
    426      6      30     47     31     47   1.0000E-03
    427      7      30     47     31     47   1.0000E-03
    428      8      30     47     31     47   1.0000E-03
    429      9      30     47     31     47   1.0000E-03
    430     10      30     47     31     47   1.0000E-03
    431     11      30     47     31     47   1.0000E-03
    432     12      30     47     31     47   1.0000E-03
    433     13      30     47     31     47   1.0000E-03
    434     14      30     47     31     47   1.0000E-03
    435     15      30     47     31     47   1.0000E-03
    436     16      30     47     31     47   1.0000E-03
    437     17      30     47     31     47   1.0000E-03
    438     18      30     47     31     47   1.0000E-03
    439     19      30     47     31     47   1.0000E-03
    440     20      30     47     31     47   1.0000E-03
    441      1      31     48     31     49   1.0000E-03
    442      2      31     48     31     49   1.0000E-03
    443      3      31     48     31     49   1.0000E-03
    444      4      31     48     31     49   1.0000E-03
    445      5      31     48     31     49   1.0000E-03
    446      6      31     48     31     49   1.0000E-03
    447      7      31     48     31     49   1.0000E-03
    448      8      31     48     31     49   1.0000E-03
    449      9      31     48     31     49   1.0000E-03
    450     10      31     48     31     49   1.0000E-03
    451     11      31     48     31     49   1.0000E-03
    452     12      31     48     31     49   1.0000E-03
    453     13      31     48     31     49   1.0000E-03
    454     14      31     48     31     49   1.0000E-03
    455     15      31     48     31     49   1.0000E-03
    456     16      31     48     31     49   1.0000E-03
    457     17      31     48     31     49   1.0000E-03
    458     18      31     48     31     49   1.0000E-03
    459     19      31     48     31     49   1.0000E-03
    460     20      31     48     31     49   1.0000E-03
    461      1      30     48     31     48   1.0000E-03
    462      2      30     48     31     48   1.0000E-03
    463      3      30     48     31     48   1.0000E-03
    464      4      30     48     31     48   1.0000E-03
    465      5      30     48     31     48   1.0000E-03
    466      6      30     48     31     48   1.0000E-03
    467      7      30     48     31     48   1.0000E-03
    468      8      30     48     31     48   1.0000E-03
    469      9      30     48     31     48   1.0000E-03
    470     10      30     48     31     48   1.0000E-03
    471     11      30     48     31     48   1.0000E-03
    472     12      30     48     31     48   1.0000E-03
    473     13      30     48     31     48   1.0000E-03
    474     14      30     48     31     48   1.0000E-03
    475     15      30     48     31     48   1.0000E-03
    476     16      30     48     31     48   1.0000E-03
    477     17      30     48     31     48   1.0000E-03
    478     18      30     48     31     48   1.0000E-03
    479     19      30     48     31     48   1.0000E-03
    480     20      30     48     31     48   1.0000E-03
    481      1      31     49     31     50   1.0000E-03
    482      2      31     49     31     50   1.0000E-03
    483      3      31     49     31     50   1.0000E-03
    484      4      31     49     31     50   1.0000E-03
    485      5      31     49     31     50   1.0000E-03
    486      6      31     49     31     50   1.0000E-03
    487      7      31     49     31     50   1.0000E-03
    488      8      31     49     31     50   1.0000E-03
    489      9      31     49     31     50   1.0000E-03
    490     10      31     49     31     50   1.0000E-03
    491     11      31     49     31     50   1.0000E-03
    492     12      31     49     31     50   1.0000E-03
    493     13      31     49     31     50   1.0000E-03
    494     14      31     49     31     50   1.0000E-03
    495     15      31     49     31     50   1.0000E-03
    496     16      31     49     31     50   1.0000E-03
    497     17      31     49     31     50   1.0000E-03
    498     18      31     49     31     50   1.0000E-03
    499     19      31     49     31     50   1.0000E-03
    500     20      31     49     31     50   1.0000E-03
    501      1      30     50     31     50   1.0000E-03
    502      2      30     50     31     50   1.0000E-03
    503      3      30     50     31     50   1.0000E-03
    504      4      30     50     31     50   1.0000E-03
    505      5      30     50     31     50   1.0000E-03
    506      6      30     50     31     50   1.0000E-03
    507      7      30     50     31     50   1.0000E-03
    508      8      30     50     31     50   1.0000E-03
    509      9      30     50     31     50   1.0000E-03
    510     10      30     50     31     50   1.0000E-03
    511     11      30     50     31     50   1.0000E-03
    512     12      30     50     31     50   1.0000E-03
    513     13      30     50     31     50   1.0000E-03
    514     14      30     50     31     50   1.0000E-03
    515     15      30     50     31     50   1.0000E-03
    516     16      30     50     31     50   1.0000E-03
    517     17      30     50     31     50   1.0000E-03
    518     18      30     50     31     50   1.0000E-03
    519     19      30     50     31     50   1.0000E-03
    520     20      30     50     31     50   1.0000E-03
    521      1      30     51     31     51   1.0000E-03
    522      2      30     51     31     51   1.0000E-03
    523      3      30     51     31     51   1.0000E-03
    524      4      30     51     31     51   1.0000E-03
    525      5      30     51     31     51   1.0000E-03
    526      6      30     51     31     51   1.0000E-03
    527      7      30     51     31     51   1.0000E-03
    528      8      30     51     31     51   1.0000E-03
    529      9      30     51     31     51   1.0000E-03
    530     10      30     51     31     51   1.0000E-03
    531     11      30     51     31     51   1.0000E-03
    532     12      30     51     31     51   1.0000E-03
    533     13      30     51     31     51   1.0000E-03
    534     14      30     51     31     51   1.0000E-03
    535     15      30     51     31     51   1.0000E-03
    536     16      30     51     31     51   1.0000E-03
    537     17      30     51     31     51   1.0000E-03
    538     18      30     51     31     51   1.0000E-03
    539     19      30     51     31     51   1.0000E-03
    540     20      30     51     31     51   1.0000E-03
    541      1      31     55     31     56   1.0000E-03
    542      2      31     55     31     56   1.0000E-03
    543      3      31     55     31     56   1.0000E-03
    544      4      31     55     31     56   1.0000E-03
    545      5      31     55     31     56   1.0000E-03
    546      6      31     55     31     56   1.0000E-03
    547      7      31     55     31     56   1.0000E-03
    548      8      31     55     31     56   1.0000E-03
    549      9      31     55     31     56   1.0000E-03
    550     10      31     55     31     56   1.0000E-03
    551     11      31     55     31     56   1.0000E-03
    552     12      31     55     31     56   1.0000E-03
    553     13      31     55     31     56   1.0000E-03
    554     14      31     55     31     56   1.0000E-03
    555     15      31     55     31     56   1.0000E-03
    556     16      31     55     31     56   1.0000E-03
    557     17      31     55     31     56   1.0000E-03
    558     18      31     55     31     56   1.0000E-03
    559     19      31     55     31     56   1.0000E-03
    560     20      31     55     31     56   1.0000E-03
    561      1      30     55     31     55   1.0000E-03
    562      2      30     55     31     55   1.0000E-03
    563      3      30     55     31     55   1.0000E-03
    564      4      30     55     31     55   1.0000E-03
    565      5      30     55     31     55   1.0000E-03
    566      6      30     55     31     55   1.0000E-03
    567      7      30     55     31     55   1.0000E-03
    568      8      30     55     31     55   1.0000E-03
    569      9      30     55     31     55   1.0000E-03
    570     10      30     55     31     55   1.0000E-03
    571     11      30     55     31     55   1.0000E-03
    572     12      30     55     31     55   1.0000E-03
    573     13      30     55     31     55   1.0000E-03
    574     14      30     55     31     55   1.0000E-03
    575     15      30     55     31     55   1.0000E-03
    576     16      30     55     31     55   1.0000E-03
    577     17      30     55     31     55   1.0000E-03
    578     18      30     55     31     55   1.0000E-03
    579     19      30     55     31     55   1.0000E-03
    580     20      30     55     31     55   1.0000E-03
    581      1      32     35     32     36   1.0000E-03
    582      2      32     35     32     36   1.0000E-03
    583      3      32     35     32     36   1.0000E-03
    584      4      32     35     32     36   1.0000E-03
    585      5      32     35     32     36   1.0000E-03
    586      6      32     35     32     36   1.0000E-03
    587      7      32     35     32     36   1.0000E-03
    588      8      32     35     32     36   1.0000E-03
    589      9      32     35     32     36   1.0000E-03
    590     10      32     35     32     36   1.0000E-03
    591     11      32     35     32     36   1.0000E-03
    592     12      32     35     32     36   1.0000E-03
    593     13      32     35     32     36   1.0000E-03
    594     14      32     35     32     36   1.0000E-03
    595     15      32     35     32     36   1.0000E-03
    596     16      32     35     32     36   1.0000E-03
    597     17      32     35     32     36   1.0000E-03
    598     18      32     35     32     36   1.0000E-03
    599     19      32     35     32     36   1.0000E-03
    600     20      32     35     32     36   1.0000E-03
    601      1      31     49     32     49   1.0000E-03
    602      2      31     49     32     49   1.0000E-03
    603      3      31     49     32     49   1.0000E-03
    604      4      31     49     32     49   1.0000E-03
    605      5      31     49     32     49   1.0000E-03
    606      6      31     49     32     49   1.0000E-03
    607      7      31     49     32     49   1.0000E-03
    608      8      31     49     32     49   1.0000E-03
    609      9      31     49     32     49   1.0000E-03
    610     10      31     49     32     49   1.0000E-03
    611     11      31     49     32     49   1.0000E-03
    612     12      31     49     32     49   1.0000E-03
    613     13      31     49     32     49   1.0000E-03
    614     14      31     49     32     49   1.0000E-03
    615     15      31     49     32     49   1.0000E-03
    616     16      31     49     32     49   1.0000E-03
    617     17      31     49     32     49   1.0000E-03
    618     18      31     49     32     49   1.0000E-03
    619     19      31     49     32     49   1.0000E-03
    620     20      31     49     32     49   1.0000E-03
    621      1      32     56     32     57   1.0000E-03
    622      2      32     56     32     57   1.0000E-03
    623      3      32     56     32     57   1.0000E-03
    624      4      32     56     32     57   1.0000E-03
    625      5      32     56     32     57   1.0000E-03
    626      6      32     56     32     57   1.0000E-03
    627      7      32     56     32     57   1.0000E-03
    628      8      32     56     32     57   1.0000E-03
    629      9      32     56     32     57   1.0000E-03
    630     10      32     56     32     57   1.0000E-03
    631     11      32     56     32     57   1.0000E-03
    632     12      32     56     32     57   1.0000E-03
    633     13      32     56     32     57   1.0000E-03
    634     14      32     56     32     57   1.0000E-03
    635     15      32     56     32     57   1.0000E-03
    636     16      32     56     32     57   1.0000E-03
    637     17      32     56     32     57   1.0000E-03
    638     18      32     56     32     57   1.0000E-03
    639     19      32     56     32     57   1.0000E-03
    640     20      32     56     32     57   1.0000E-03
    641      1      31     56     32     56   1.0000E-03
    642      2      31     56     32     56   1.0000E-03
    643      3      31     56     32     56   1.0000E-03
    644      4      31     56     32     56   1.0000E-03
    645      5      31     56     32     56   1.0000E-03
    646      6      31     56     32     56   1.0000E-03
    647      7      31     56     32     56   1.0000E-03
    648      8      31     56     32     56   1.0000E-03
    649      9      31     56     32     56   1.0000E-03
    650     10      31     56     32     56   1.0000E-03
    651     11      31     56     32     56   1.0000E-03
    652     12      31     56     32     56   1.0000E-03
    653     13      31     56     32     56   1.0000E-03
    654     14      31     56     32     56   1.0000E-03
    655     15      31     56     32     56   1.0000E-03
    656     16      31     56     32     56   1.0000E-03
    657     17      31     56     32     56   1.0000E-03
    658     18      31     56     32     56   1.0000E-03
    659     19      31     56     32     56   1.0000E-03
    660     20      31     56     32     56   1.0000E-03
    661      1      33     34     33     35   1.0000E-03
    662      2      33     34     33     35   1.0000E-03
    663      3      33     34     33     35   1.0000E-03
    664      4      33     34     33     35   1.0000E-03
    665      5      33     34     33     35   1.0000E-03
    666      6      33     34     33     35   1.0000E-03
    667      7      33     34     33     35   1.0000E-03
    668      8      33     34     33     35   1.0000E-03
    669      9      33     34     33     35   1.0000E-03
    670     10      33     34     33     35   1.0000E-03
    671     11      33     34     33     35   1.0000E-03
    672     12      33     34     33     35   1.0000E-03
    673     13      33     34     33     35   1.0000E-03
    674     14      33     34     33     35   1.0000E-03
    675     15      33     34     33     35   1.0000E-03
    676     16      33     34     33     35   1.0000E-03
    677     17      33     34     33     35   1.0000E-03
    678     18      33     34     33     35   1.0000E-03
    679     19      33     34     33     35   1.0000E-03
    680     20      33     34     33     35   1.0000E-03
    681      1      32     35     33     35   1.0000E-03
    682      2      32     35     33     35   1.0000E-03
    683      3      32     35     33     35   1.0000E-03
    684      4      32     35     33     35   1.0000E-03
    685      5      32     35     33     35   1.0000E-03
    686      6      32     35     33     35   1.0000E-03
    687      7      32     35     33     35   1.0000E-03
    688      8      32     35     33     35   1.0000E-03
    689      9      32     35     33     35   1.0000E-03
    690     10      32     35     33     35   1.0000E-03
    691     11      32     35     33     35   1.0000E-03
    692     12      32     35     33     35   1.0000E-03
    693     13      32     35     33     35   1.0000E-03
    694     14      32     35     33     35   1.0000E-03
    695     15      32     35     33     35   1.0000E-03
    696     16      32     35     33     35   1.0000E-03
    697     17      32     35     33     35   1.0000E-03
    698     18      32     35     33     35   1.0000E-03
    699     19      32     35     33     35   1.0000E-03
    700     20      32     35     33     35   1.0000E-03
    701      1      33     57     33     58   1.0000E-03
    702      2      33     57     33     58   1.0000E-03
    703      3      33     57     33     58   1.0000E-03
    704      4      33     57     33     58   1.0000E-03
    705      5      33     57     33     58   1.0000E-03
    706      6      33     57     33     58   1.0000E-03
    707      7      33     57     33     58   1.0000E-03
    708      8      33     57     33     58   1.0000E-03
    709      9      33     57     33     58   1.0000E-03
    710     10      33     57     33     58   1.0000E-03
    711     11      33     57     33     58   1.0000E-03
    712     12      33     57     33     58   1.0000E-03
    713     13      33     57     33     58   1.0000E-03
    714     14      33     57     33     58   1.0000E-03
    715     15      33     57     33     58   1.0000E-03
    716     16      33     57     33     58   1.0000E-03
    717     17      33     57     33     58   1.0000E-03
    718     18      33     57     33     58   1.0000E-03
    719     19      33     57     33     58   1.0000E-03
    720     20      33     57     33     58   1.0000E-03
    721      1      32     57     33     57   1.0000E-03
    722      2      32     57     33     57   1.0000E-03
    723      3      32     57     33     57   1.0000E-03
    724      4      32     57     33     57   1.0000E-03
    725      5      32     57     33     57   1.0000E-03
    726      6      32     57     33     57   1.0000E-03
    727      7      32     57     33     57   1.0000E-03
    728      8      32     57     33     57   1.0000E-03
    729      9      32     57     33     57   1.0000E-03
    730     10      32     57     33     57   1.0000E-03
    731     11      32     57     33     57   1.0000E-03
    732     12      32     57     33     57   1.0000E-03
    733     13      32     57     33     57   1.0000E-03
    734     14      32     57     33     57   1.0000E-03
    735     15      32     57     33     57   1.0000E-03
    736     16      32     57     33     57   1.0000E-03
    737     17      32     57     33     57   1.0000E-03
    738     18      32     57     33     57   1.0000E-03
    739     19      32     57     33     57   1.0000E-03
    740     20      32     57     33     57   1.0000E-03
    741      1      34     34     34     35   1.0000E-03
    742      2      34     34     34     35   1.0000E-03
    743      3      34     34     34     35   1.0000E-03
    744      4      34     34     34     35   1.0000E-03
    745      5      34     34     34     35   1.0000E-03
    746      6      34     34     34     35   1.0000E-03
    747      7      34     34     34     35   1.0000E-03
    748      8      34     34     34     35   1.0000E-03
    749      9      34     34     34     35   1.0000E-03
    750     10      34     34     34     35   1.0000E-03
    751     11      34     34     34     35   1.0000E-03
    752     12      34     34     34     35   1.0000E-03
    753     13      34     34     34     35   1.0000E-03
    754     14      34     34     34     35   1.0000E-03
    755     15      34     34     34     35   1.0000E-03
    756     16      34     34     34     35   1.0000E-03
    757     17      34     34     34     35   1.0000E-03
    758     18      34     34     34     35   1.0000E-03
    759     19      34     34     34     35   1.0000E-03
    760     20      34     34     34     35   1.0000E-03
    761      1      34     58     34     59   1.0000E-03
    762      2      34     58     34     59   1.0000E-03
    763      3      34     58     34     59   1.0000E-03
    764      4      34     58     34     59   1.0000E-03
    765      5      34     58     34     59   1.0000E-03
    766      6      34     58     34     59   1.0000E-03
    767      7      34     58     34     59   1.0000E-03
    768      8      34     58     34     59   1.0000E-03
    769      9      34     58     34     59   1.0000E-03
    770     10      34     58     34     59   1.0000E-03
    771     11      34     58     34     59   1.0000E-03
    772     12      34     58     34     59   1.0000E-03
    773     13      34     58     34     59   1.0000E-03
    774     14      34     58     34     59   1.0000E-03
    775     15      34     58     34     59   1.0000E-03
    776     16      34     58     34     59   1.0000E-03
    777     17      34     58     34     59   1.0000E-03
    778     18      34     58     34     59   1.0000E-03
    779     19      34     58     34     59   1.0000E-03
    780     20      34     58     34     59   1.0000E-03
    781      1      33     58     34     58   1.0000E-03
    782      2      33     58     34     58   1.0000E-03
    783      3      33     58     34     58   1.0000E-03
    784      4      33     58     34     58   1.0000E-03
    785      5      33     58     34     58   1.0000E-03
    786      6      33     58     34     58   1.0000E-03
    787      7      33     58     34     58   1.0000E-03
    788      8      33     58     34     58   1.0000E-03
    789      9      33     58     34     58   1.0000E-03
    790     10      33     58     34     58   1.0000E-03
    791     11      33     58     34     58   1.0000E-03
    792     12      33     58     34     58   1.0000E-03
    793     13      33     58     34     58   1.0000E-03
    794     14      33     58     34     58   1.0000E-03
    795     15      33     58     34     58   1.0000E-03
    796     16      33     58     34     58   1.0000E-03
    797     17      33     58     34     58   1.0000E-03
    798     18      33     58     34     58   1.0000E-03
    799     19      33     58     34     58   1.0000E-03
    800     20      33     58     34     58   1.0000E-03
    801      1      35     33     35     34   1.0000E-03
    802      2      35     33     35     34   1.0000E-03
    803      3      35     33     35     34   1.0000E-03
    804      4      35     33     35     34   1.0000E-03
    805      5      35     33     35     34   1.0000E-03
    806      6      35     33     35     34   1.0000E-03
    807      7      35     33     35     34   1.0000E-03
    808      8      35     33     35     34   1.0000E-03
    809      9      35     33     35     34   1.0000E-03
    810     10      35     33     35     34   1.0000E-03
    811     11      35     33     35     34   1.0000E-03
    812     12      35     33     35     34   1.0000E-03
    813     13      35     33     35     34   1.0000E-03
    814     14      35     33     35     34   1.0000E-03
    815     15      35     33     35     34   1.0000E-03
    816     16      35     33     35     34   1.0000E-03
    817     17      35     33     35     34   1.0000E-03
    818     18      35     33     35     34   1.0000E-03
    819     19      35     33     35     34   1.0000E-03
    820     20      35     33     35     34   1.0000E-03
    821      1      34     34     35     34   1.0000E-03
    822      2      34     34     35     34   1.0000E-03
    823      3      34     34     35     34   1.0000E-03
    824      4      34     34     35     34   1.0000E-03
    825      5      34     34     35     34   1.0000E-03
    826      6      34     34     35     34   1.0000E-03
    827      7      34     34     35     34   1.0000E-03
    828      8      34     34     35     34   1.0000E-03
    829      9      34     34     35     34   1.0000E-03
    830     10      34     34     35     34   1.0000E-03
    831     11      34     34     35     34   1.0000E-03
    832     12      34     34     35     34   1.0000E-03
    833     13      34     34     35     34   1.0000E-03
    834     14      34     34     35     34   1.0000E-03
    835     15      34     34     35     34   1.0000E-03
    836     16      34     34     35     34   1.0000E-03
    837     17      34     34     35     34   1.0000E-03
    838     18      34     34     35     34   1.0000E-03
    839     19      34     34     35     34   1.0000E-03
    840     20      34     34     35     34   1.0000E-03
    841      1      35     59     35     60   1.0000E-03
    842      2      35     59     35     60   1.0000E-03
    843      3      35     59     35     60   1.0000E-03
    844      4      35     59     35     60   1.0000E-03
    845      5      35     59     35     60   1.0000E-03
    846      6      35     59     35     60   1.0000E-03
    847      7      35     59     35     60   1.0000E-03
    848      8      35     59     35     60   1.0000E-03
    849      9      35     59     35     60   1.0000E-03
    850     10      35     59     35     60   1.0000E-03
    851     11      35     59     35     60   1.0000E-03
    852     12      35     59     35     60   1.0000E-03
    853     13      35     59     35     60   1.0000E-03
    854     14      35     59     35     60   1.0000E-03
    855     15      35     59     35     60   1.0000E-03
    856     16      35     59     35     60   1.0000E-03
    857     17      35     59     35     60   1.0000E-03
    858     18      35     59     35     60   1.0000E-03
    859     19      35     59     35     60   1.0000E-03
    860     20      35     59     35     60   1.0000E-03
    861      1      34     59     35     59   1.0000E-03
    862      2      34     59     35     59   1.0000E-03
    863      3      34     59     35     59   1.0000E-03
    864      4      34     59     35     59   1.0000E-03
    865      5      34     59     35     59   1.0000E-03
    866      6      34     59     35     59   1.0000E-03
    867      7      34     59     35     59   1.0000E-03
    868      8      34     59     35     59   1.0000E-03
    869      9      34     59     35     59   1.0000E-03
    870     10      34     59     35     59   1.0000E-03
    871     11      34     59     35     59   1.0000E-03
    872     12      34     59     35     59   1.0000E-03
    873     13      34     59     35     59   1.0000E-03
    874     14      34     59     35     59   1.0000E-03
    875     15      34     59     35     59   1.0000E-03
    876     16      34     59     35     59   1.0000E-03
    877     17      34     59     35     59   1.0000E-03
    878     18      34     59     35     59   1.0000E-03
    879     19      34     59     35     59   1.0000E-03
    880     20      34     59     35     59   1.0000E-03
    881      1      36     32     36     33   1.0000E-03
    882      2      36     32     36     33   1.0000E-03
    883      3      36     32     36     33   1.0000E-03
    884      4      36     32     36     33   1.0000E-03
    885      5      36     32     36     33   1.0000E-03
    886      6      36     32     36     33   1.0000E-03
    887      7      36     32     36     33   1.0000E-03
    888      8      36     32     36     33   1.0000E-03
    889      9      36     32     36     33   1.0000E-03
    890     10      36     32     36     33   1.0000E-03
    891     11      36     32     36     33   1.0000E-03
    892     12      36     32     36     33   1.0000E-03
    893     13      36     32     36     33   1.0000E-03
    894     14      36     32     36     33   1.0000E-03
    895     15      36     32     36     33   1.0000E-03
    896     16      36     32     36     33   1.0000E-03
    897     17      36     32     36     33   1.0000E-03
    898     18      36     32     36     33   1.0000E-03
    899     19      36     32     36     33   1.0000E-03
    900     20      36     32     36     33   1.0000E-03
    901      1      35     33     36     33   1.0000E-03
    902      2      35     33     36     33   1.0000E-03
    903      3      35     33     36     33   1.0000E-03
    904      4      35     33     36     33   1.0000E-03
    905      5      35     33     36     33   1.0000E-03
    906      6      35     33     36     33   1.0000E-03
    907      7      35     33     36     33   1.0000E-03
    908      8      35     33     36     33   1.0000E-03
    909      9      35     33     36     33   1.0000E-03
    910     10      35     33     36     33   1.0000E-03
    911     11      35     33     36     33   1.0000E-03
    912     12      35     33     36     33   1.0000E-03
    913     13      35     33     36     33   1.0000E-03
    914     14      35     33     36     33   1.0000E-03
    915     15      35     33     36     33   1.0000E-03
    916     16      35     33     36     33   1.0000E-03
    917     17      35     33     36     33   1.0000E-03
    918     18      35     33     36     33   1.0000E-03
    919     19      35     33     36     33   1.0000E-03
    920     20      35     33     36     33   1.0000E-03
    921      1      36     60     36     61   1.0000E-03
    922      2      36     60     36     61   1.0000E-03
    923      3      36     60     36     61   1.0000E-03
    924      4      36     60     36     61   1.0000E-03
    925      5      36     60     36     61   1.0000E-03
    926      6      36     60     36     61   1.0000E-03
    927      7      36     60     36     61   1.0000E-03
    928      8      36     60     36     61   1.0000E-03
    929      9      36     60     36     61   1.0000E-03
    930     10      36     60     36     61   1.0000E-03
    931     11      36     60     36     61   1.0000E-03
    932     12      36     60     36     61   1.0000E-03
    933     13      36     60     36     61   1.0000E-03
    934     14      36     60     36     61   1.0000E-03
    935     15      36     60     36     61   1.0000E-03
    936     16      36     60     36     61   1.0000E-03
    937     17      36     60     36     61   1.0000E-03
    938     18      36     60     36     61   1.0000E-03
    939     19      36     60     36     61   1.0000E-03
    940     20      36     60     36     61   1.0000E-03
    941      1      35     60     36     60   1.0000E-03
    942      2      35     60     36     60   1.0000E-03
    943      3      35     60     36     60   1.0000E-03
    944      4      35     60     36     60   1.0000E-03
    945      5      35     60     36     60   1.0000E-03
    946      6      35     60     36     60   1.0000E-03
    947      7      35     60     36     60   1.0000E-03
    948      8      35     60     36     60   1.0000E-03
    949      9      35     60     36     60   1.0000E-03
    950     10      35     60     36     60   1.0000E-03
    951     11      35     60     36     60   1.0000E-03
    952     12      35     60     36     60   1.0000E-03
    953     13      35     60     36     60   1.0000E-03
    954     14      35     60     36     60   1.0000E-03
    955     15      35     60     36     60   1.0000E-03
    956     16      35     60     36     60   1.0000E-03
    957     17      35     60     36     60   1.0000E-03
    958     18      35     60     36     60   1.0000E-03
    959     19      35     60     36     60   1.0000E-03
    960     20      35     60     36     60   1.0000E-03
    961      1      37     31     37     32   1.0000E-03
    962      2      37     31     37     32   1.0000E-03
    963      3      37     31     37     32   1.0000E-03
    964      4      37     31     37     32   1.0000E-03
    965      5      37     31     37     32   1.0000E-03
    966      6      37     31     37     32   1.0000E-03
    967      7      37     31     37     32   1.0000E-03
    968      8      37     31     37     32   1.0000E-03
    969      9      37     31     37     32   1.0000E-03
    970     10      37     31     37     32   1.0000E-03
    971     11      37     31     37     32   1.0000E-03
    972     12      37     31     37     32   1.0000E-03
    973     13      37     31     37     32   1.0000E-03
    974     14      37     31     37     32   1.0000E-03
    975     15      37     31     37     32   1.0000E-03
    976     16      37     31     37     32   1.0000E-03
    977     17      37     31     37     32   1.0000E-03
    978     18      37     31     37     32   1.0000E-03
    979     19      37     31     37     32   1.0000E-03
    980     20      37     31     37     32   1.0000E-03
    981      1      36     32     37     32   1.0000E-03
    982      2      36     32     37     32   1.0000E-03
    983      3      36     32     37     32   1.0000E-03
[...]
   5919     19     124     51    124     52   1.0000E-03
   5920     20     124     51    124     52   1.0000E-03
   5921      1     124     51    125     51   1.0000E-03
   5922      2     124     51    125     51   1.0000E-03
   5923      3     124     51    125     51   1.0000E-03
   5924      4     124     51    125     51   1.0000E-03
   5925      5     124     51    125     51   1.0000E-03
   5926      6     124     51    125     51   1.0000E-03
   5927      7     124     51    125     51   1.0000E-03
   5928      8     124     51    125     51   1.0000E-03
   5929      9     124     51    125     51   1.0000E-03
   5930     10     124     51    125     51   1.0000E-03
   5931     11     124     51    125     51   1.0000E-03
   5932     12     124     51    125     51   1.0000E-03
   5933     13     124     51    125     51   1.0000E-03
   5934     14     124     51    125     51   1.0000E-03
   5935     15     124     51    125     51   1.0000E-03
   5936     16     124     51    125     51   1.0000E-03
   5937     17     124     51    125     51   1.0000E-03
   5938     18     124     51    125     51   1.0000E-03
   5939     19     124     51    125     51   1.0000E-03
   5940     20     124     51    125     51   1.0000E-03
   5941      1     125     40    125     41   1.0000E-03
   5942      2     125     40    125     41   1.0000E-03
   5943      3     125     40    125     41   1.0000E-03
   5944      4     125     40    125     41   1.0000E-03
   5945      5     125     40    125     41   1.0000E-03
   5946      6     125     40    125     41   1.0000E-03
   5947      7     125     40    125     41   1.0000E-03
   5948      8     125     40    125     41   1.0000E-03
   5949      9     125     40    125     41   1.0000E-03
   5950     10     125     40    125     41   1.0000E-03
   5951     11     125     40    125     41   1.0000E-03
   5952     12     125     40    125     41   1.0000E-03
   5953     13     125     40    125     41   1.0000E-03
   5954     14     125     40    125     41   1.0000E-03
   5955     15     125     40    125     41   1.0000E-03
   5956     16     125     40    125     41   1.0000E-03
   5957     17     125     40    125     41   1.0000E-03
   5958     18     125     40    125     41   1.0000E-03
   5959     19     125     40    125     41   1.0000E-03
   5960     20     125     40    125     41   1.0000E-03
   5961      1     125     43    126     43   1.0000E-03
   5962      2     125     43    126     43   1.0000E-03
   5963      3     125     43    126     43   1.0000E-03
   5964      4     125     43    126     43   1.0000E-03
   5965      5     125     43    126     43   1.0000E-03
   5966      6     125     43    126     43   1.0000E-03
   5967      7     125     43    126     43   1.0000E-03
   5968      8     125     43    126     43   1.0000E-03
   5969      9     125     43    126     43   1.0000E-03
   5970     10     125     43    126     43   1.0000E-03
   5971     11     125     43    126     43   1.0000E-03
   5972     12     125     43    126     43   1.0000E-03
   5973     13     125     43    126     43   1.0000E-03
   5974     14     125     43    126     43   1.0000E-03
   5975     15     125     43    126     43   1.0000E-03
   5976     16     125     43    126     43   1.0000E-03
   5977     17     125     43    126     43   1.0000E-03
   5978     18     125     43    126     43   1.0000E-03
   5979     19     125     43    126     43   1.0000E-03
   5980     20     125     43    126     43   1.0000E-03
   5981      1     125     44    126     44   1.0000E-03
   5982      2     125     44    126     44   1.0000E-03
   5983      3     125     44    126     44   1.0000E-03
   5984      4     125     44    126     44   1.0000E-03
   5985      5     125     44    126     44   1.0000E-03
   5986      6     125     44    126     44   1.0000E-03
   5987      7     125     44    126     44   1.0000E-03
   5988      8     125     44    126     44   1.0000E-03
   5989      9     125     44    126     44   1.0000E-03
   5990     10     125     44    126     44   1.0000E-03
   5991     11     125     44    126     44   1.0000E-03
   5992     12     125     44    126     44   1.0000E-03
   5993     13     125     44    126     44   1.0000E-03
   5994     14     125     44    126     44   1.0000E-03
   5995     15     125     44    126     44   1.0000E-03
   5996     16     125     44    126     44   1.0000E-03
   5997     17     125     44    126     44   1.0000E-03
   5998     18     125     44    126     44   1.0000E-03
   5999     19     125     44    126     44   1.0000E-03
   6000     20     125     44    126     44   1.0000E-03
   6001      1     125     45    126     45   1.0000E-03
   6002      2     125     45    126     45   1.0000E-03
   6003      3     125     45    126     45   1.0000E-03
   6004      4     125     45    126     45   1.0000E-03
   6005      5     125     45    126     45   1.0000E-03
   6006      6     125     45    126     45   1.0000E-03
   6007      7     125     45    126     45   1.0000E-03
   6008      8     125     45    126     45   1.0000E-03
   6009      9     125     45    126     45   1.0000E-03
   6010     10     125     45    126     45   1.0000E-03
   6011     11     125     45    126     45   1.0000E-03
   6012     12     125     45    126     45   1.0000E-03
   6013     13     125     45    126     45   1.0000E-03
   6014     14     125     45    126     45   1.0000E-03
   6015     15     125     45    126     45   1.0000E-03
   6016     16     125     45    126     45   1.0000E-03
   6017     17     125     45    126     45   1.0000E-03
   6018     18     125     45    126     45   1.0000E-03
   6019     19     125     45    126     45   1.0000E-03
   6020     20     125     45    126     45   1.0000E-03
   6021      1     125     46    126     46   1.0000E-03
   6022      2     125     46    126     46   1.0000E-03
   6023      3     125     46    126     46   1.0000E-03
   6024      4     125     46    126     46   1.0000E-03
   6025      5     125     46    126     46   1.0000E-03
   6026      6     125     46    126     46   1.0000E-03
   6027      7     125     46    126     46   1.0000E-03
   6028      8     125     46    126     46   1.0000E-03
   6029      9     125     46    126     46   1.0000E-03
   6030     10     125     46    126     46   1.0000E-03
   6031     11     125     46    126     46   1.0000E-03
   6032     12     125     46    126     46   1.0000E-03
   6033     13     125     46    126     46   1.0000E-03
   6034     14     125     46    126     46   1.0000E-03
   6035     15     125     46    126     46   1.0000E-03
   6036     16     125     46    126     46   1.0000E-03
   6037     17     125     46    126     46   1.0000E-03
   6038     18     125     46    126     46   1.0000E-03
   6039     19     125     46    126     46   1.0000E-03
   6040     20     125     46    126     46   1.0000E-03
   6041      1     125     47    125     48   1.0000E-03
   6042      2     125     47    125     48   1.0000E-03
   6043      3     125     47    125     48   1.0000E-03
   6044      4     125     47    125     48   1.0000E-03
   6045      5     125     47    125     48   1.0000E-03
   6046      6     125     47    125     48   1.0000E-03
   6047      7     125     47    125     48   1.0000E-03
   6048      8     125     47    125     48   1.0000E-03
   6049      9     125     47    125     48   1.0000E-03
   6050     10     125     47    125     48   1.0000E-03
   6051     11     125     47    125     48   1.0000E-03
   6052     12     125     47    125     48   1.0000E-03
   6053     13     125     47    125     48   1.0000E-03
   6054     14     125     47    125     48   1.0000E-03
   6055     15     125     47    125     48   1.0000E-03
   6056     16     125     47    125     48   1.0000E-03
   6057     17     125     47    125     48   1.0000E-03
   6058     18     125     47    125     48   1.0000E-03
   6059     19     125     47    125     48   1.0000E-03
   6060     20     125     47    125     48   1.0000E-03
   6061      1     125     47    126     47   1.0000E-03
   6062      2     125     47    126     47   1.0000E-03
   6063      3     125     47    126     47   1.0000E-03
   6064      4     125     47    126     47   1.0000E-03
   6065      5     125     47    126     47   1.0000E-03
   6066      6     125     47    126     47   1.0000E-03
   6067      7     125     47    126     47   1.0000E-03
   6068      8     125     47    126     47   1.0000E-03
   6069      9     125     47    126     47   1.0000E-03
   6070     10     125     47    126     47   1.0000E-03
   6071     11     125     47    126     47   1.0000E-03
   6072     12     125     47    126     47   1.0000E-03
   6073     13     125     47    126     47   1.0000E-03
   6074     14     125     47    126     47   1.0000E-03
   6075     15     125     47    126     47   1.0000E-03
   6076     16     125     47    126     47   1.0000E-03
   6077     17     125     47    126     47   1.0000E-03
   6078     18     125     47    126     47   1.0000E-03
   6079     19     125     47    126     47   1.0000E-03
   6080     20     125     47    126     47   1.0000E-03
   6081      1     126     40    126     41   1.0000E-03
   6082      2     126     40    126     41   1.0000E-03
   6083      3     126     40    126     41   1.0000E-03
   6084      4     126     40    126     41   1.0000E-03
   6085      5     126     40    126     41   1.0000E-03
   6086      6     126     40    126     41   1.0000E-03
   6087      7     126     40    126     41   1.0000E-03
   6088      8     126     40    126     41   1.0000E-03
   6089      9     126     40    126     41   1.0000E-03
   6090     10     126     40    126     41   1.0000E-03
   6091     11     126     40    126     41   1.0000E-03
   6092     12     126     40    126     41   1.0000E-03
   6093     13     126     40    126     41   1.0000E-03
   6094     14     126     40    126     41   1.0000E-03
   6095     15     126     40    126     41   1.0000E-03
   6096     16     126     40    126     41   1.0000E-03
   6097     17     126     40    126     41   1.0000E-03
   6098     18     126     40    126     41   1.0000E-03
   6099     19     126     40    126     41   1.0000E-03
   6100     20     126     40    126     41   1.0000E-03
   6101      1     126     41    127     41   1.0000E-03
   6102      2     126     41    127     41   1.0000E-03
   6103      3     126     41    127     41   1.0000E-03
   6104      4     126     41    127     41   1.0000E-03
   6105      5     126     41    127     41   1.0000E-03
   6106      6     126     41    127     41   1.0000E-03
   6107      7     126     41    127     41   1.0000E-03
   6108      8     126     41    127     41   1.0000E-03
   6109      9     126     41    127     41   1.0000E-03
   6110     10     126     41    127     41   1.0000E-03
   6111     11     126     41    127     41   1.0000E-03
   6112     12     126     41    127     41   1.0000E-03
   6113     13     126     41    127     41   1.0000E-03
   6114     14     126     41    127     41   1.0000E-03
   6115     15     126     41    127     41   1.0000E-03
   6116     16     126     41    127     41   1.0000E-03
   6117     17     126     41    127     41   1.0000E-03
   6118     18     126     41    127     41   1.0000E-03
   6119     19     126     41    127     41   1.0000E-03
   6120     20     126     41    127     41   1.0000E-03
   6121      1     126     42    126     43   1.0000E-03
   6122      2     126     42    126     43   1.0000E-03
   6123      3     126     42    126     43   1.0000E-03
   6124      4     126     42    126     43   1.0000E-03
   6125      5     126     42    126     43   1.0000E-03
   6126      6     126     42    126     43   1.0000E-03
   6127      7     126     42    126     43   1.0000E-03
   6128      8     126     42    126     43   1.0000E-03
   6129      9     126     42    126     43   1.0000E-03
   6130     10     126     42    126     43   1.0000E-03
   6131     11     126     42    126     43   1.0000E-03
   6132     12     126     42    126     43   1.0000E-03
   6133     13     126     42    126     43   1.0000E-03
   6134     14     126     42    126     43   1.0000E-03
   6135     15     126     42    126     43   1.0000E-03
   6136     16     126     42    126     43   1.0000E-03
   6137     17     126     42    126     43   1.0000E-03
   6138     18     126     42    126     43   1.0000E-03
   6139     19     126     42    126     43   1.0000E-03
   6140     20     126     42    126     43   1.0000E-03
   6141      1     126     42    127     42   1.0000E-03
   6142      2     126     42    127     42   1.0000E-03
   6143      3     126     42    127     42   1.0000E-03
   6144      4     126     42    127     42   1.0000E-03
   6145      5     126     42    127     42   1.0000E-03
   6146      6     126     42    127     42   1.0000E-03
   6147      7     126     42    127     42   1.0000E-03
   6148      8     126     42    127     42   1.0000E-03
   6149      9     126     42    127     42   1.0000E-03
   6150     10     126     42    127     42   1.0000E-03
   6151     11     126     42    127     42   1.0000E-03
   6152     12     126     42    127     42   1.0000E-03
   6153     13     126     42    127     42   1.0000E-03
   6154     14     126     42    127     42   1.0000E-03
   6155     15     126     42    127     42   1.0000E-03
   6156     16     126     42    127     42   1.0000E-03
   6157     17     126     42    127     42   1.0000E-03
   6158     18     126     42    127     42   1.0000E-03
   6159     19     126     42    127     42   1.0000E-03
   6160     20     126     42    127     42   1.0000E-03

   6160 HFB BARRIERS
 # GMG package for  MODFLOW-2005, generated by Flopy.
 -------------------------------------------------
 GMG -- PCG GEOMETRIC MULTI-GRID SOLUTION PACKAGE:
 -------------------------------------------------
 RCLOSE  = 1.00E-05; INNER CONVERGENCE CRITERION
 IITER   =       30; MAX INNER ITERATIONS            
 HCLOSE  = 1.00E-05; OUTER CONVERGENCE CRITERION
 MXIITER =       50; MAX OUTER ITERATIONS            
 DAMP    = 1.00E+00; DAMPING PARAMETER          
 IADAMP  =        0; ADAPTIVE DAMPING FLAG           
 IOUTGMG =        0; OUTPUT CONTROL FLAG             
 ISM     =        0; SMOOTHER FLAG                   
 ISC     =        0; COARSENING FLAG                 
 RELAX   = 0.00E+00; RELAXATION PARAMETER       
 -------------------------------------------------
 ILU SMOOTHING IMPLEMENTED
 FULL COARSENING
 -------------------------------------------------
   30 MEGABYTES OF MEMORY ALLOCATED BY GMG
 -------------------------------------------------



 ***Link-MT3DMS Package v7***
 OPENING LINK-MT3DMS OUTPUT FILE: mt3d_link.ftl                                                                                                                                                                                           
 ON UNIT NUMBER:    54
 FILE TYPE: UNFORMATTED
 HEADER OPTION: EXTENDED
 ***Link-MT3DMS Package v7***

1
                            STRESS PERIOD NO.    1, LENGTH =   10950.00    
                            -----------------------------------------------

                              NUMBER OF TIME STEPS =     1

                               MULTIPLIER FOR DELT =     1.000

                            INITIAL TIME STEP SIZE =   10950.00    

 WELL NO.  LAYER   ROW   COL   STRESS RATE         
 --------------------------------------------------
      1      9     73     52      -14.33    
      2     10     73     52      -23.88    
      3     11     73     52      -23.88    
      4     12     73     52      -23.88    
      5     13     73     52      -23.88    
      6     14     73     52      -11.94    
      7     15     73     52      -11.94    
      8     16     73     52      -11.94    
      9     17     73     52      -11.94    
     10     18     73     52      -2.388    
     11      9     43     45      -14.33    
     12     10     43     45      -23.88    
     13     11     43     45      -23.88    
     14     12     43     45      -23.88    
     15     13     43     45      -23.88    
     16     14     43     45      -11.94    
     17     15     43     45      -11.94    
     18     16     43     45      -11.94    
     19     17     43     45      -11.94    
     20     18     43     45      -2.388    
     21      9     50     35      -14.33    
     22     10     50     35      -23.88    
     23     11     50     35      -23.88    
     24     12     50     35      -23.88    
     25     13     50     35      -23.88    
     26     14     50     35      -11.94    
     27     15     50     35      -11.94    
     28     16     50     35      -11.94    
     29     17     50     35      -11.94    
     30     18     50     35      -2.388    

     30 WELLS



                           RECHARGE
 READING ON UNIT   19 WITH FORMAT: (90E15.6)           
 
 SOLVING FOR HEAD 

 OUTPUT CONTROL FOR STRESS PERIOD    1   TIME STEP    1
    SAVE HEAD FOR ALL LAYERS
    SAVE BUDGET
 UBDSV2 SAVING "   CONSTANT HEAD" ON UNIT1001 AT TIME STEP  1, STRESS PERIOD   1
 UBDSV1 SAVING "FLOW RIGHT FACE " ON UNIT1001 AT TIME STEP  1, STRESS PERIOD   1
 UBDSV1 SAVING "FLOW FRONT FACE " ON UNIT1001 AT TIME STEP  1, STRESS PERIOD   1
 UBDSV1 SAVING "FLOW LOWER FACE " ON UNIT1001 AT TIME STEP  1, STRESS PERIOD   1
 UBDSV4 SAVING "           WELLS" ON UNIT1001 AT TIME STEP  1, STRESS PERIOD   1
 UBDSV3 SAVING "        RECHARGE" ON UNIT1001 AT TIME STEP  1, STRESS PERIOD   1

 SAVING SATURATED THICKNESS AND FLOW TERMS ON UNIT   54 FOR MT3DMS
 BY THE LINK-MT3DMS PACKAGE V7 AT TIME STEP    1, STRESS PERIOD    1


 HEAD WILL BE SAVED ON UNIT   51 AT END OF TIME STEP    1, STRESS PERIOD    1
1
  VOLUMETRIC BUDGET FOR ENTIRE MODEL AT END OF TIME STEP    1, STRESS PERIOD   1
  ------------------------------------------------------------------------------

     CUMULATIVE VOLUMES      L**3       RATES FOR THIS TIME STEP      L**3/T
     ------------------                 ------------------------

           IN:                                      IN:
           ---                                      ---
             STORAGE =           0.0000               STORAGE =           0.0000
       CONSTANT HEAD =     7323201.0000         CONSTANT HEAD =         668.7855
               WELLS =           0.0000                 WELLS =           0.0000
            RECHARGE =    20037742.0000              RECHARGE =        1829.9308

            TOTAL IN =    27360944.0000              TOTAL IN =        2498.7163

          OUT:                                     OUT:
          ----                                     ----
             STORAGE =           0.0000               STORAGE =           0.0000
       CONSTANT HEAD =    22104942.0000         CONSTANT HEAD =        2018.7162
               WELLS =     5256000.0000                 WELLS =         480.0000
            RECHARGE =           0.0000              RECHARGE =           0.0000

           TOTAL OUT =    27360942.0000             TOTAL OUT =        2498.7163

            IN - OUT =           2.0000              IN - OUT =           0.0000

 PERCENT DISCREPANCY =           0.00     PERCENT DISCREPANCY =           0.00






         TIME SUMMARY AT END OF TIME STEP    1 IN STRESS PERIOD    1
                    SECONDS     MINUTES      HOURS       DAYS        YEARS
                    -----------------------------------------------------------
   TIME STEP LENGTH 9.46080E+08 1.57680E+07 2.62800E+05  10950.      29.979    
 STRESS PERIOD TIME 9.46080E+08 1.57680E+07 2.62800E+05  10950.      29.979    
         TOTAL TIME 9.46080E+08 1.57680E+07 2.62800E+05  10950.      29.979    
1

 Run end date and time (yyyy/mm/dd hh:mm:ss): 2019/06/03 21:45:44
 Elapsed run time:  3.645 Seconds

