                                  MODFLOW-2005     
      U.S. GEOLOGICAL SURVEY MODULAR FINITE-DIFFERENCE GROUND-WATER FLOW MODEL
                            VERSION 1.12.00 2/3/2017

 LIST FILE: Griftpark_Random1.list
                         UNIT    2

 OPENING Griftpark_Random1.dis
 FILE TYPE:DIS   UNIT   11   STATUS:OLD    
 FORMAT:FORMATTED              ACCESS:SEQUENTIAL          

 OPENING Griftpark_Random1.bas
 FILE TYPE:BAS6   UNIT   13   STATUS:OLD    
 FORMAT:FORMATTED              ACCESS:SEQUENTIAL          

 OPENING Griftpark_Random1.lpf
 FILE TYPE:LPF   UNIT   15   STATUS:OLD    
 FORMAT:FORMATTED              ACCESS:SEQUENTIAL          

 OPENING Griftpark_Random1.hfb
 FILE TYPE:HFB6   UNIT   29   STATUS:OLD    
 FORMAT:FORMATTED              ACCESS:SEQUENTIAL          

 OPENING Griftpark_Random1.wel
 FILE TYPE:WEL   UNIT   20   STATUS:OLD    
 FORMAT:FORMATTED              ACCESS:SEQUENTIAL          

 OPENING Griftpark_Random1.rch
 FILE TYPE:RCH   UNIT   19   STATUS:OLD    
 FORMAT:FORMATTED              ACCESS:SEQUENTIAL          

 OPENING Griftpark_Random1.oc
 FILE TYPE:OC   UNIT   14   STATUS:OLD    
 FORMAT:FORMATTED              ACCESS:SEQUENTIAL          

 OPENING Griftpark_Random1.lmt6
 FILE TYPE:LMT6   UNIT   30   STATUS:OLD    
 FORMAT:FORMATTED              ACCESS:SEQUENTIAL          

 OPENING Griftpark_Random1.gmg
 FILE TYPE:GMG   UNIT   27   STATUS:OLD    
 FORMAT:FORMATTED              ACCESS:SEQUENTIAL          

 OPENING Griftpark_Random1.hds
 FILE TYPE:DATA(BINARY)   UNIT   51   STATUS:REPLACE
 FORMAT:UNFORMATTED            ACCESS:STREAM              

 OPENING Griftpark_Random1.cbc
 FILE TYPE:DATA(BINARY)   UNIT 1001   STATUS:REPLACE
 FORMAT:UNFORMATTED            ACCESS:STREAM              

 BAS -- BASIC PACKAGE, VERSION 7, 5/2/2005 INPUT READ FROM UNIT   13
 
 MODFLOW was compiled using mixed precision
 Precision of REAL variables:           6
 Precision of DOUBLE PRECISION variables:          15

 DISCRETIZATION INPUT DATA READ FROM UNIT   11
 # DIS package for  MODFLOW-2005, generated by Flopy.
   29 LAYERS        83 ROWS        51 COLUMNS
    1 STRESS PERIOD(S) IN SIMULATION
 MODEL TIME UNIT IS DAYS
 MODEL LENGTH UNIT IS METERS
  Confining bed flag for each layer:
   0   0   0   0   0   0   0   0   0   0   0   0   0   0   0   0   0   0   0   0
   0   0   0   0   0   0   0   0   0



                               DELR
 READING ON UNIT   11 WITH FORMAT: (51E15.6)           



                               DELC
 READING ON UNIT   11 WITH FORMAT: (83E15.6)           

 TOP ELEVATION OF LAYER 1 =   2.50000    

   MODEL LAYER BOTTOM EL. =  -2.50000     FOR LAYER   1

   MODEL LAYER BOTTOM EL. =  -5.00000     FOR LAYER   2

   MODEL LAYER BOTTOM EL. =  -7.50000     FOR LAYER   3

   MODEL LAYER BOTTOM EL. =  -10.0000     FOR LAYER   4

   MODEL LAYER BOTTOM EL. =  -12.5000     FOR LAYER   5

   MODEL LAYER BOTTOM EL. =  -15.0000     FOR LAYER   6

   MODEL LAYER BOTTOM EL. =  -17.5000     FOR LAYER   7

   MODEL LAYER BOTTOM EL. =  -20.0000     FOR LAYER   8

   MODEL LAYER BOTTOM EL. =  -22.5000     FOR LAYER   9

   MODEL LAYER BOTTOM EL. =  -25.0000     FOR LAYER  10

   MODEL LAYER BOTTOM EL. =  -27.5000     FOR LAYER  11

   MODEL LAYER BOTTOM EL. =  -30.0000     FOR LAYER  12

   MODEL LAYER BOTTOM EL. =  -32.5000     FOR LAYER  13

   MODEL LAYER BOTTOM EL. =  -35.0000     FOR LAYER  14

   MODEL LAYER BOTTOM EL. =  -37.5000     FOR LAYER  15

   MODEL LAYER BOTTOM EL. =  -40.0000     FOR LAYER  16

   MODEL LAYER BOTTOM EL. =  -42.5000     FOR LAYER  17

   MODEL LAYER BOTTOM EL. =  -45.0000     FOR LAYER  18

   MODEL LAYER BOTTOM EL. =  -47.5000     FOR LAYER  19

   MODEL LAYER BOTTOM EL. =  -50.0000     FOR LAYER  20

   MODEL LAYER BOTTOM EL. =  -52.5000     FOR LAYER  21

   MODEL LAYER BOTTOM EL. =  -55.0000     FOR LAYER  22

   MODEL LAYER BOTTOM EL. =  -57.5000     FOR LAYER  23

   MODEL LAYER BOTTOM EL. =  -60.0000     FOR LAYER  24

   MODEL LAYER BOTTOM EL. =  -68.0000     FOR LAYER  25

   MODEL LAYER BOTTOM EL. =  -76.0000     FOR LAYER  26

   MODEL LAYER BOTTOM EL. =  -84.0000     FOR LAYER  27

   MODEL LAYER BOTTOM EL. =  -92.0000     FOR LAYER  28

   MODEL LAYER BOTTOM EL. =  -100.000     FOR LAYER  29


 STRESS PERIOD     LENGTH       TIME STEPS     MULTIPLIER FOR DELT    SS FLAG
 ----------------------------------------------------------------------------
        1         10950.00          1                    1.000         SS

 STEADY-STATE SIMULATION



 
 # BAS6 package for  MODFLOW-2005, generated by Flopy.                           
 THE FREE FORMAT OPTION HAS BEEN SELECTED



                     BOUNDARY ARRAY FOR LAYER   1
 READING ON UNIT   13 WITH FORMAT: (51I10)             



                     BOUNDARY ARRAY FOR LAYER   2
 READING ON UNIT   13 WITH FORMAT: (51I10)             



                     BOUNDARY ARRAY FOR LAYER   3
 READING ON UNIT   13 WITH FORMAT: (51I10)             



                     BOUNDARY ARRAY FOR LAYER   4
 READING ON UNIT   13 WITH FORMAT: (51I10)             



                     BOUNDARY ARRAY FOR LAYER   5
 READING ON UNIT   13 WITH FORMAT: (51I10)             



                     BOUNDARY ARRAY FOR LAYER   6
 READING ON UNIT   13 WITH FORMAT: (51I10)             



                     BOUNDARY ARRAY FOR LAYER   7
 READING ON UNIT   13 WITH FORMAT: (51I10)             



                     BOUNDARY ARRAY FOR LAYER   8
 READING ON UNIT   13 WITH FORMAT: (51I10)             



                     BOUNDARY ARRAY FOR LAYER   9
 READING ON UNIT   13 WITH FORMAT: (51I10)             



                     BOUNDARY ARRAY FOR LAYER  10
 READING ON UNIT   13 WITH FORMAT: (51I10)             



                     BOUNDARY ARRAY FOR LAYER  11
 READING ON UNIT   13 WITH FORMAT: (51I10)             



                     BOUNDARY ARRAY FOR LAYER  12
 READING ON UNIT   13 WITH FORMAT: (51I10)             



                     BOUNDARY ARRAY FOR LAYER  13
 READING ON UNIT   13 WITH FORMAT: (51I10)             



                     BOUNDARY ARRAY FOR LAYER  14
 READING ON UNIT   13 WITH FORMAT: (51I10)             



                     BOUNDARY ARRAY FOR LAYER  15
 READING ON UNIT   13 WITH FORMAT: (51I10)             



                     BOUNDARY ARRAY FOR LAYER  16
 READING ON UNIT   13 WITH FORMAT: (51I10)             



                     BOUNDARY ARRAY FOR LAYER  17
 READING ON UNIT   13 WITH FORMAT: (51I10)             



                     BOUNDARY ARRAY FOR LAYER  18
 READING ON UNIT   13 WITH FORMAT: (51I10)             



                     BOUNDARY ARRAY FOR LAYER  19
 READING ON UNIT   13 WITH FORMAT: (51I10)             



                     BOUNDARY ARRAY FOR LAYER  20
 READING ON UNIT   13 WITH FORMAT: (51I10)             



                     BOUNDARY ARRAY FOR LAYER  21
 READING ON UNIT   13 WITH FORMAT: (51I10)             



                     BOUNDARY ARRAY FOR LAYER  22
 READING ON UNIT   13 WITH FORMAT: (51I10)             



                     BOUNDARY ARRAY FOR LAYER  23
 READING ON UNIT   13 WITH FORMAT: (51I10)             



                     BOUNDARY ARRAY FOR LAYER  24
 READING ON UNIT   13 WITH FORMAT: (51I10)             



                     BOUNDARY ARRAY FOR LAYER  25
 READING ON UNIT   13 WITH FORMAT: (51I10)             



                     BOUNDARY ARRAY FOR LAYER  26
 READING ON UNIT   13 WITH FORMAT: (51I10)             



                     BOUNDARY ARRAY FOR LAYER  27
 READING ON UNIT   13 WITH FORMAT: (51I10)             



                     BOUNDARY ARRAY FOR LAYER  28
 READING ON UNIT   13 WITH FORMAT: (51I10)             



                     BOUNDARY ARRAY FOR LAYER  29
 READING ON UNIT   13 WITH FORMAT: (51I10)             

 AQUIFER HEAD WILL BE SET TO  -999.99     AT ALL NO-FLOW NODES (IBOUND=0).



                       INITIAL HEAD FOR LAYER   1
 READING ON UNIT   13 WITH FORMAT: (51E15.6)           



                       INITIAL HEAD FOR LAYER   2
 READING ON UNIT   13 WITH FORMAT: (51E15.6)           



                       INITIAL HEAD FOR LAYER   3
 READING ON UNIT   13 WITH FORMAT: (51E15.6)           



                       INITIAL HEAD FOR LAYER   4
 READING ON UNIT   13 WITH FORMAT: (51E15.6)           



                       INITIAL HEAD FOR LAYER   5
 READING ON UNIT   13 WITH FORMAT: (51E15.6)           



                       INITIAL HEAD FOR LAYER   6
 READING ON UNIT   13 WITH FORMAT: (51E15.6)           



                       INITIAL HEAD FOR LAYER   7
 READING ON UNIT   13 WITH FORMAT: (51E15.6)           



                       INITIAL HEAD FOR LAYER   8
 READING ON UNIT   13 WITH FORMAT: (51E15.6)           



                       INITIAL HEAD FOR LAYER   9
 READING ON UNIT   13 WITH FORMAT: (51E15.6)           



                       INITIAL HEAD FOR LAYER  10
 READING ON UNIT   13 WITH FORMAT: (51E15.6)           



                       INITIAL HEAD FOR LAYER  11
 READING ON UNIT   13 WITH FORMAT: (51E15.6)           



                       INITIAL HEAD FOR LAYER  12
 READING ON UNIT   13 WITH FORMAT: (51E15.6)           



                       INITIAL HEAD FOR LAYER  13
 READING ON UNIT   13 WITH FORMAT: (51E15.6)           



                       INITIAL HEAD FOR LAYER  14
 READING ON UNIT   13 WITH FORMAT: (51E15.6)           



                       INITIAL HEAD FOR LAYER  15
 READING ON UNIT   13 WITH FORMAT: (51E15.6)           



                       INITIAL HEAD FOR LAYER  16
 READING ON UNIT   13 WITH FORMAT: (51E15.6)           



                       INITIAL HEAD FOR LAYER  17
 READING ON UNIT   13 WITH FORMAT: (51E15.6)           



                       INITIAL HEAD FOR LAYER  18
 READING ON UNIT   13 WITH FORMAT: (51E15.6)           



                       INITIAL HEAD FOR LAYER  19
 READING ON UNIT   13 WITH FORMAT: (51E15.6)           



                       INITIAL HEAD FOR LAYER  20
 READING ON UNIT   13 WITH FORMAT: (51E15.6)           



                       INITIAL HEAD FOR LAYER  21
 READING ON UNIT   13 WITH FORMAT: (51E15.6)           



                       INITIAL HEAD FOR LAYER  22
 READING ON UNIT   13 WITH FORMAT: (51E15.6)           



                       INITIAL HEAD FOR LAYER  23
 READING ON UNIT   13 WITH FORMAT: (51E15.6)           



                       INITIAL HEAD FOR LAYER  24
 READING ON UNIT   13 WITH FORMAT: (51E15.6)           



                       INITIAL HEAD FOR LAYER  25
 READING ON UNIT   13 WITH FORMAT: (51E15.6)           



                       INITIAL HEAD FOR LAYER  26
 READING ON UNIT   13 WITH FORMAT: (51E15.6)           



                       INITIAL HEAD FOR LAYER  27
 READING ON UNIT   13 WITH FORMAT: (51E15.6)           



                       INITIAL HEAD FOR LAYER  28
 READING ON UNIT   13 WITH FORMAT: (51E15.6)           



                       INITIAL HEAD FOR LAYER  29
 READING ON UNIT   13 WITH FORMAT: (51E15.6)           
 # OC package for  MODFLOW-2005, generated by Flopy.

 OUTPUT CONTROL IS SPECIFIED ONLY AT TIME STEPS FOR WHICH OUTPUT IS DESIRED
 COMPACT CELL-BY-CELL BUDGET FILES WILL BE WRITTEN
 AUXILIARY DATA WILL BE SAVED IN CELL-BY-CELL BUDGET FILES
 HEAD PRINT FORMAT CODE IS   0    DRAWDOWN PRINT FORMAT CODE IS   0
 HEADS WILL BE SAVED ON UNIT   51    DRAWDOWNS WILL BE SAVED ON UNIT    0

 LPF -- LAYER-PROPERTY FLOW PACKAGE, VERSION 7, 5/2/2005
         INPUT READ FROM UNIT   15
 # LPF package for  MODFLOW-2005, generated by Flopy.
 CELL-BY-CELL FLOWS WILL BE SAVED ON UNIT 1001
 HEAD AT CELLS THAT CONVERT TO DRY= -1.00000E+30
 No named parameters

   LAYER FLAGS:
 LAYER       LAYTYP        LAYAVG         CHANI        LAYVKA        LAYWET
 ---------------------------------------------------------------------------
    1             0             0     1.000E+00             0             0
    2             0             0     1.000E+00             0             0
    3             0             0     1.000E+00             0             0
    4             0             0     1.000E+00             0             0
    5             0             0     1.000E+00             0             0
    6             0             0     1.000E+00             0             0
    7             0             0     1.000E+00             0             0
    8             0             0     1.000E+00             0             0
    9             0             0     1.000E+00             0             0
   10             0             0     1.000E+00             0             0
   11             0             0     1.000E+00             0             0
   12             0             0     1.000E+00             0             0
   13             0             0     1.000E+00             0             0
   14             0             0     1.000E+00             0             0
   15             0             0     1.000E+00             0             0
   16             0             0     1.000E+00             0             0
   17             0             0     1.000E+00             0             0
   18             0             0     1.000E+00             0             0
   19             0             0     1.000E+00             0             0
   20             0             0     1.000E+00             0             0
   21             0             0     1.000E+00             0             0
   22             0             0     1.000E+00             0             0
   23             0             0     1.000E+00             0             0
   24             0             0     1.000E+00             0             0
   25             0             0     1.000E+00             0             0
   26             0             0     1.000E+00             0             0
   27             0             0     1.000E+00             0             0
   28             0             0     1.000E+00             0             0
   29             0             0     1.000E+00             0             0

   INTERPRETATION OF LAYER FLAGS:
                        INTERBLOCK     HORIZONTAL    DATA IN
         LAYER TYPE   TRANSMISSIVITY   ANISOTROPY   ARRAY VKA   WETTABILITY
 LAYER      (LAYTYP)      (LAYAVG)       (CHANI)      (LAYVKA)      (LAYWET)
 ---------------------------------------------------------------------------
    1      CONFINED      HARMONIC     1.000E+00    VERTICAL K  NON-WETTABLE
    2      CONFINED      HARMONIC     1.000E+00    VERTICAL K  NON-WETTABLE
    3      CONFINED      HARMONIC     1.000E+00    VERTICAL K  NON-WETTABLE
    4      CONFINED      HARMONIC     1.000E+00    VERTICAL K  NON-WETTABLE
    5      CONFINED      HARMONIC     1.000E+00    VERTICAL K  NON-WETTABLE
    6      CONFINED      HARMONIC     1.000E+00    VERTICAL K  NON-WETTABLE
    7      CONFINED      HARMONIC     1.000E+00    VERTICAL K  NON-WETTABLE
    8      CONFINED      HARMONIC     1.000E+00    VERTICAL K  NON-WETTABLE
    9      CONFINED      HARMONIC     1.000E+00    VERTICAL K  NON-WETTABLE
   10      CONFINED      HARMONIC     1.000E+00    VERTICAL K  NON-WETTABLE
   11      CONFINED      HARMONIC     1.000E+00    VERTICAL K  NON-WETTABLE
   12      CONFINED      HARMONIC     1.000E+00    VERTICAL K  NON-WETTABLE
   13      CONFINED      HARMONIC     1.000E+00    VERTICAL K  NON-WETTABLE
   14      CONFINED      HARMONIC     1.000E+00    VERTICAL K  NON-WETTABLE
   15      CONFINED      HARMONIC     1.000E+00    VERTICAL K  NON-WETTABLE
   16      CONFINED      HARMONIC     1.000E+00    VERTICAL K  NON-WETTABLE
   17      CONFINED      HARMONIC     1.000E+00    VERTICAL K  NON-WETTABLE
   18      CONFINED      HARMONIC     1.000E+00    VERTICAL K  NON-WETTABLE
   19      CONFINED      HARMONIC     1.000E+00    VERTICAL K  NON-WETTABLE
   20      CONFINED      HARMONIC     1.000E+00    VERTICAL K  NON-WETTABLE
   21      CONFINED      HARMONIC     1.000E+00    VERTICAL K  NON-WETTABLE
   22      CONFINED      HARMONIC     1.000E+00    VERTICAL K  NON-WETTABLE
   23      CONFINED      HARMONIC     1.000E+00    VERTICAL K  NON-WETTABLE
   24      CONFINED      HARMONIC     1.000E+00    VERTICAL K  NON-WETTABLE
   25      CONFINED      HARMONIC     1.000E+00    VERTICAL K  NON-WETTABLE
   26      CONFINED      HARMONIC     1.000E+00    VERTICAL K  NON-WETTABLE
   27      CONFINED      HARMONIC     1.000E+00    VERTICAL K  NON-WETTABLE
   28      CONFINED      HARMONIC     1.000E+00    VERTICAL K  NON-WETTABLE
   29      CONFINED      HARMONIC     1.000E+00    VERTICAL K  NON-WETTABLE

 WETTING CAPABILITY IS NOT ACTIVE IN ANY LAYER



              HYD. COND. ALONG ROWS FOR LAYER   1
 READING ON UNIT   15 WITH FORMAT: (51E15.6)           



                VERTICAL HYD. COND. FOR LAYER   1
 READING ON UNIT   15 WITH FORMAT: (51E15.6)           



              HYD. COND. ALONG ROWS FOR LAYER   2
 READING ON UNIT   15 WITH FORMAT: (51E15.6)           



                VERTICAL HYD. COND. FOR LAYER   2
 READING ON UNIT   15 WITH FORMAT: (51E15.6)           



              HYD. COND. ALONG ROWS FOR LAYER   3
 READING ON UNIT   15 WITH FORMAT: (51E15.6)           



                VERTICAL HYD. COND. FOR LAYER   3
 READING ON UNIT   15 WITH FORMAT: (51E15.6)           



              HYD. COND. ALONG ROWS FOR LAYER   4
 READING ON UNIT   15 WITH FORMAT: (51E15.6)           



                VERTICAL HYD. COND. FOR LAYER   4
 READING ON UNIT   15 WITH FORMAT: (51E15.6)           



              HYD. COND. ALONG ROWS FOR LAYER   5
 READING ON UNIT   15 WITH FORMAT: (51E15.6)           



                VERTICAL HYD. COND. FOR LAYER   5
 READING ON UNIT   15 WITH FORMAT: (51E15.6)           



              HYD. COND. ALONG ROWS FOR LAYER   6
 READING ON UNIT   15 WITH FORMAT: (51E15.6)           



                VERTICAL HYD. COND. FOR LAYER   6
 READING ON UNIT   15 WITH FORMAT: (51E15.6)           



              HYD. COND. ALONG ROWS FOR LAYER   7
 READING ON UNIT   15 WITH FORMAT: (51E15.6)           



                VERTICAL HYD. COND. FOR LAYER   7
 READING ON UNIT   15 WITH FORMAT: (51E15.6)           



              HYD. COND. ALONG ROWS FOR LAYER   8
 READING ON UNIT   15 WITH FORMAT: (51E15.6)           



                VERTICAL HYD. COND. FOR LAYER   8
 READING ON UNIT   15 WITH FORMAT: (51E15.6)           



              HYD. COND. ALONG ROWS FOR LAYER   9
 READING ON UNIT   15 WITH FORMAT: (51E15.6)           



                VERTICAL HYD. COND. FOR LAYER   9
 READING ON UNIT   15 WITH FORMAT: (51E15.6)           



              HYD. COND. ALONG ROWS FOR LAYER  10
 READING ON UNIT   15 WITH FORMAT: (51E15.6)           



                VERTICAL HYD. COND. FOR LAYER  10
 READING ON UNIT   15 WITH FORMAT: (51E15.6)           



              HYD. COND. ALONG ROWS FOR LAYER  11
 READING ON UNIT   15 WITH FORMAT: (51E15.6)           



                VERTICAL HYD. COND. FOR LAYER  11
 READING ON UNIT   15 WITH FORMAT: (51E15.6)           



              HYD. COND. ALONG ROWS FOR LAYER  12
 READING ON UNIT   15 WITH FORMAT: (51E15.6)           



                VERTICAL HYD. COND. FOR LAYER  12
 READING ON UNIT   15 WITH FORMAT: (51E15.6)           



              HYD. COND. ALONG ROWS FOR LAYER  13
 READING ON UNIT   15 WITH FORMAT: (51E15.6)           



                VERTICAL HYD. COND. FOR LAYER  13
 READING ON UNIT   15 WITH FORMAT: (51E15.6)           



              HYD. COND. ALONG ROWS FOR LAYER  14
 READING ON UNIT   15 WITH FORMAT: (51E15.6)           



                VERTICAL HYD. COND. FOR LAYER  14
 READING ON UNIT   15 WITH FORMAT: (51E15.6)           



              HYD. COND. ALONG ROWS FOR LAYER  15
 READING ON UNIT   15 WITH FORMAT: (51E15.6)           



                VERTICAL HYD. COND. FOR LAYER  15
 READING ON UNIT   15 WITH FORMAT: (51E15.6)           



              HYD. COND. ALONG ROWS FOR LAYER  16
 READING ON UNIT   15 WITH FORMAT: (51E15.6)           



                VERTICAL HYD. COND. FOR LAYER  16
 READING ON UNIT   15 WITH FORMAT: (51E15.6)           



              HYD. COND. ALONG ROWS FOR LAYER  17
 READING ON UNIT   15 WITH FORMAT: (51E15.6)           



                VERTICAL HYD. COND. FOR LAYER  17
 READING ON UNIT   15 WITH FORMAT: (51E15.6)           



              HYD. COND. ALONG ROWS FOR LAYER  18
 READING ON UNIT   15 WITH FORMAT: (51E15.6)           



                VERTICAL HYD. COND. FOR LAYER  18
 READING ON UNIT   15 WITH FORMAT: (51E15.6)           



              HYD. COND. ALONG ROWS FOR LAYER  19
 READING ON UNIT   15 WITH FORMAT: (51E15.6)           



                VERTICAL HYD. COND. FOR LAYER  19
 READING ON UNIT   15 WITH FORMAT: (51E15.6)           



              HYD. COND. ALONG ROWS FOR LAYER  20
 READING ON UNIT   15 WITH FORMAT: (51E15.6)           



                VERTICAL HYD. COND. FOR LAYER  20
 READING ON UNIT   15 WITH FORMAT: (51E15.6)           



              HYD. COND. ALONG ROWS FOR LAYER  21
 READING ON UNIT   15 WITH FORMAT: (51E15.6)           



                VERTICAL HYD. COND. FOR LAYER  21
 READING ON UNIT   15 WITH FORMAT: (51E15.6)           



              HYD. COND. ALONG ROWS FOR LAYER  22
 READING ON UNIT   15 WITH FORMAT: (51E15.6)           



                VERTICAL HYD. COND. FOR LAYER  22
 READING ON UNIT   15 WITH FORMAT: (51E15.6)           



              HYD. COND. ALONG ROWS FOR LAYER  23
 READING ON UNIT   15 WITH FORMAT: (51E15.6)           



                VERTICAL HYD. COND. FOR LAYER  23
 READING ON UNIT   15 WITH FORMAT: (51E15.6)           



              HYD. COND. ALONG ROWS FOR LAYER  24
 READING ON UNIT   15 WITH FORMAT: (51E15.6)           



                VERTICAL HYD. COND. FOR LAYER  24
 READING ON UNIT   15 WITH FORMAT: (51E15.6)           



              HYD. COND. ALONG ROWS FOR LAYER  25
 READING ON UNIT   15 WITH FORMAT: (51E15.6)           



                VERTICAL HYD. COND. FOR LAYER  25
 READING ON UNIT   15 WITH FORMAT: (51E15.6)           



              HYD. COND. ALONG ROWS FOR LAYER  26
 READING ON UNIT   15 WITH FORMAT: (51E15.6)           



                VERTICAL HYD. COND. FOR LAYER  26
 READING ON UNIT   15 WITH FORMAT: (51E15.6)           



              HYD. COND. ALONG ROWS FOR LAYER  27
 READING ON UNIT   15 WITH FORMAT: (51E15.6)           



                VERTICAL HYD. COND. FOR LAYER  27
 READING ON UNIT   15 WITH FORMAT: (51E15.6)           



              HYD. COND. ALONG ROWS FOR LAYER  28
 READING ON UNIT   15 WITH FORMAT: (51E15.6)           



                VERTICAL HYD. COND. FOR LAYER  28
 READING ON UNIT   15 WITH FORMAT: (51E15.6)           



              HYD. COND. ALONG ROWS FOR LAYER  29
 READING ON UNIT   15 WITH FORMAT: (51E15.6)           



                VERTICAL HYD. COND. FOR LAYER  29
 READING ON UNIT   15 WITH FORMAT: (51E15.6)           

 WEL -- WELL PACKAGE, VERSION 7, 5/2/2005 INPUT READ FROM UNIT   20
 # WEL package for  MODFLOW-2005, generated by Flopy.
 No named parameters
 MAXIMUM OF     30 ACTIVE WELLS AT ONE TIME
 CELL-BY-CELL FLOWS WILL BE SAVED ON UNIT 1001


     0 Well parameters

 RCH -- RECHARGE PACKAGE, VERSION 7, 5/2/2005 INPUT READ FROM UNIT   19
 # RCH package for  MODFLOW-2005, generated by Flopy.
 No named parameters
 OPTION 3 -- RECHARGE TO HIGHEST ACTIVE NODE IN EACH VERTICAL COLUMN
 CELL-BY-CELL FLOWS WILL BE SAVED ON UNIT 1001


     0 Recharge parameters

 HFB -- HORIZONTAL-FLOW BARRIER PACKAGE, VERSION 7, 5/2/2005.
   INPUT READ FROM UNIT   29
 # HFB6 package for  MODFLOW-2005, generated by Flopy.
     0 PARAMETERS DEFINE A MAXIMUM OF      0 HORIZONTAL FLOW BARRIERS
   1520 HORIZONTAL FLOW BARRIERS NOT DEFINED BY PARAMETERS


     0 HFB parameters

   1520 BARRIERS NOT DEFINED BY PARAMETERS

 BARRIER  LAYER  IROW1  ICOL1  IROW2  ICOL2    HYDCHR
 -------------------------------------------------------
      1      1      29     21     29     22   1.0000E-03
      2      2      29     21     29     22   1.0000E-03
      3      3      29     21     29     22   1.0000E-03
      4      4      29     21     29     22   1.0000E-03
      5      5      29     21     29     22   1.0000E-03
      6      6      29     21     29     22   1.0000E-03
      7      7      29     21     29     22   1.0000E-03
      8      8      29     21     29     22   1.0000E-03
      9      9      29     21     29     22   1.0000E-03
     10     10      29     21     29     22   1.0000E-03
     11     11      29     21     29     22   1.0000E-03
     12     12      29     21     29     22   1.0000E-03
     13     13      29     21     29     22   1.0000E-03
     14     14      29     21     29     22   1.0000E-03
     15     15      29     21     29     22   1.0000E-03
     16     16      29     21     29     22   1.0000E-03
     17     17      29     21     29     22   1.0000E-03
     18     18      29     21     29     22   1.0000E-03
     19     19      29     21     29     22   1.0000E-03
     20     20      29     21     29     22   1.0000E-03
     21      1      28     22     29     22   1.0000E-03
     22      2      28     22     29     22   1.0000E-03
     23      3      28     22     29     22   1.0000E-03
     24      4      28     22     29     22   1.0000E-03
     25      5      28     22     29     22   1.0000E-03
     26      6      28     22     29     22   1.0000E-03
     27      7      28     22     29     22   1.0000E-03
     28      8      28     22     29     22   1.0000E-03
     29      9      28     22     29     22   1.0000E-03
     30     10      28     22     29     22   1.0000E-03
     31     11      28     22     29     22   1.0000E-03
     32     12      28     22     29     22   1.0000E-03
     33     13      28     22     29     22   1.0000E-03
     34     14      28     22     29     22   1.0000E-03
     35     15      28     22     29     22   1.0000E-03
     36     16      28     22     29     22   1.0000E-03
     37     17      28     22     29     22   1.0000E-03
     38     18      28     22     29     22   1.0000E-03
     39     19      28     22     29     22   1.0000E-03
     40     20      28     22     29     22   1.0000E-03
     41      1      28     23     29     23   1.0000E-03
     42      2      28     23     29     23   1.0000E-03
     43      3      28     23     29     23   1.0000E-03
     44      4      28     23     29     23   1.0000E-03
     45      5      28     23     29     23   1.0000E-03
     46      6      28     23     29     23   1.0000E-03
     47      7      28     23     29     23   1.0000E-03
     48      8      28     23     29     23   1.0000E-03
     49      9      28     23     29     23   1.0000E-03
     50     10      28     23     29     23   1.0000E-03
     51     11      28     23     29     23   1.0000E-03
     52     12      28     23     29     23   1.0000E-03
     53     13      28     23     29     23   1.0000E-03
     54     14      28     23     29     23   1.0000E-03
     55     15      28     23     29     23   1.0000E-03
     56     16      28     23     29     23   1.0000E-03
     57     17      28     23     29     23   1.0000E-03
     58     18      28     23     29     23   1.0000E-03
     59     19      28     23     29     23   1.0000E-03
     60     20      28     23     29     23   1.0000E-03
     61      1      28     24     29     24   1.0000E-03
     62      2      28     24     29     24   1.0000E-03
     63      3      28     24     29     24   1.0000E-03
     64      4      28     24     29     24   1.0000E-03
     65      5      28     24     29     24   1.0000E-03
     66      6      28     24     29     24   1.0000E-03
     67      7      28     24     29     24   1.0000E-03
     68      8      28     24     29     24   1.0000E-03
     69      9      28     24     29     24   1.0000E-03
     70     10      28     24     29     24   1.0000E-03
     71     11      28     24     29     24   1.0000E-03
     72     12      28     24     29     24   1.0000E-03
     73     13      28     24     29     24   1.0000E-03
     74     14      28     24     29     24   1.0000E-03
     75     15      28     24     29     24   1.0000E-03
     76     16      28     24     29     24   1.0000E-03
     77     17      28     24     29     24   1.0000E-03
     78     18      28     24     29     24   1.0000E-03
     79     19      28     24     29     24   1.0000E-03
     80     20      28     24     29     24   1.0000E-03
     81      1      28     25     29     25   1.0000E-03
     82      2      28     25     29     25   1.0000E-03
     83      3      28     25     29     25   1.0000E-03
     84      4      28     25     29     25   1.0000E-03
     85      5      28     25     29     25   1.0000E-03
     86      6      28     25     29     25   1.0000E-03
     87      7      28     25     29     25   1.0000E-03
     88      8      28     25     29     25   1.0000E-03
     89      9      28     25     29     25   1.0000E-03
     90     10      28     25     29     25   1.0000E-03
     91     11      28     25     29     25   1.0000E-03
     92     12      28     25     29     25   1.0000E-03
     93     13      28     25     29     25   1.0000E-03
     94     14      28     25     29     25   1.0000E-03
     95     15      28     25     29     25   1.0000E-03
     96     16      28     25     29     25   1.0000E-03
     97     17      28     25     29     25   1.0000E-03
     98     18      28     25     29     25   1.0000E-03
     99     19      28     25     29     25   1.0000E-03
    100     20      28     25     29     25   1.0000E-03
    101      1      28     26     29     26   1.0000E-03
    102      2      28     26     29     26   1.0000E-03
    103      3      28     26     29     26   1.0000E-03
    104      4      28     26     29     26   1.0000E-03
    105      5      28     26     29     26   1.0000E-03
    106      6      28     26     29     26   1.0000E-03
    107      7      28     26     29     26   1.0000E-03
    108      8      28     26     29     26   1.0000E-03
    109      9      28     26     29     26   1.0000E-03
    110     10      28     26     29     26   1.0000E-03
    111     11      28     26     29     26   1.0000E-03
    112     12      28     26     29     26   1.0000E-03
    113     13      28     26     29     26   1.0000E-03
    114     14      28     26     29     26   1.0000E-03
    115     15      28     26     29     26   1.0000E-03
    116     16      28     26     29     26   1.0000E-03
    117     17      28     26     29     26   1.0000E-03
    118     18      28     26     29     26   1.0000E-03
    119     19      28     26     29     26   1.0000E-03
    120     20      28     26     29     26   1.0000E-03
    121      1      29     27     29     28   1.0000E-03
    122      2      29     27     29     28   1.0000E-03
    123      3      29     27     29     28   1.0000E-03
    124      4      29     27     29     28   1.0000E-03
    125      5      29     27     29     28   1.0000E-03
    126      6      29     27     29     28   1.0000E-03
    127      7      29     27     29     28   1.0000E-03
    128      8      29     27     29     28   1.0000E-03
    129      9      29     27     29     28   1.0000E-03
    130     10      29     27     29     28   1.0000E-03
    131     11      29     27     29     28   1.0000E-03
    132     12      29     27     29     28   1.0000E-03
    133     13      29     27     29     28   1.0000E-03
    134     14      29     27     29     28   1.0000E-03
    135     15      29     27     29     28   1.0000E-03
    136     16      29     27     29     28   1.0000E-03
    137     17      29     27     29     28   1.0000E-03
    138     18      29     27     29     28   1.0000E-03
    139     19      29     27     29     28   1.0000E-03
    140     20      29     27     29     28   1.0000E-03
    141      1      28     27     29     27   1.0000E-03
    142      2      28     27     29     27   1.0000E-03
    143      3      28     27     29     27   1.0000E-03
    144      4      28     27     29     27   1.0000E-03
    145      5      28     27     29     27   1.0000E-03
    146      6      28     27     29     27   1.0000E-03
    147      7      28     27     29     27   1.0000E-03
    148      8      28     27     29     27   1.0000E-03
    149      9      28     27     29     27   1.0000E-03
    150     10      28     27     29     27   1.0000E-03
    151     11      28     27     29     27   1.0000E-03
    152     12      28     27     29     27   1.0000E-03
    153     13      28     27     29     27   1.0000E-03
    154     14      28     27     29     27   1.0000E-03
    155     15      28     27     29     27   1.0000E-03
    156     16      28     27     29     27   1.0000E-03
    157     17      28     27     29     27   1.0000E-03
    158     18      28     27     29     27   1.0000E-03
    159     19      28     27     29     27   1.0000E-03
    160     20      28     27     29     27   1.0000E-03
    161      1      30     20     30     21   1.0000E-03
    162      2      30     20     30     21   1.0000E-03
    163      3      30     20     30     21   1.0000E-03
    164      4      30     20     30     21   1.0000E-03
    165      5      30     20     30     21   1.0000E-03
    166      6      30     20     30     21   1.0000E-03
    167      7      30     20     30     21   1.0000E-03
    168      8      30     20     30     21   1.0000E-03
    169      9      30     20     30     21   1.0000E-03
    170     10      30     20     30     21   1.0000E-03
    171     11      30     20     30     21   1.0000E-03
    172     12      30     20     30     21   1.0000E-03
    173     13      30     20     30     21   1.0000E-03
    174     14      30     20     30     21   1.0000E-03
    175     15      30     20     30     21   1.0000E-03
    176     16      30     20     30     21   1.0000E-03
    177     17      30     20     30     21   1.0000E-03
    178     18      30     20     30     21   1.0000E-03
    179     19      30     20     30     21   1.0000E-03
    180     20      30     20     30     21   1.0000E-03
    181      1      29     21     30     21   1.0000E-03
    182      2      29     21     30     21   1.0000E-03
    183      3      29     21     30     21   1.0000E-03
    184      4      29     21     30     21   1.0000E-03
    185      5      29     21     30     21   1.0000E-03
    186      6      29     21     30     21   1.0000E-03
    187      7      29     21     30     21   1.0000E-03
    188      8      29     21     30     21   1.0000E-03
    189      9      29     21     30     21   1.0000E-03
    190     10      29     21     30     21   1.0000E-03
    191     11      29     21     30     21   1.0000E-03
    192     12      29     21     30     21   1.0000E-03
    193     13      29     21     30     21   1.0000E-03
    194     14      29     21     30     21   1.0000E-03
    195     15      29     21     30     21   1.0000E-03
    196     16      29     21     30     21   1.0000E-03
    197     17      29     21     30     21   1.0000E-03
    198     18      29     21     30     21   1.0000E-03
    199     19      29     21     30     21   1.0000E-03
    200     20      29     21     30     21   1.0000E-03
    201      1      30     28     30     29   1.0000E-03
    202      2      30     28     30     29   1.0000E-03
    203      3      30     28     30     29   1.0000E-03
    204      4      30     28     30     29   1.0000E-03
    205      5      30     28     30     29   1.0000E-03
    206      6      30     28     30     29   1.0000E-03
    207      7      30     28     30     29   1.0000E-03
    208      8      30     28     30     29   1.0000E-03
    209      9      30     28     30     29   1.0000E-03
    210     10      30     28     30     29   1.0000E-03
    211     11      30     28     30     29   1.0000E-03
    212     12      30     28     30     29   1.0000E-03
    213     13      30     28     30     29   1.0000E-03
    214     14      30     28     30     29   1.0000E-03
    215     15      30     28     30     29   1.0000E-03
    216     16      30     28     30     29   1.0000E-03
    217     17      30     28     30     29   1.0000E-03
    218     18      30     28     30     29   1.0000E-03
    219     19      30     28     30     29   1.0000E-03
    220     20      30     28     30     29   1.0000E-03
    221      1      29     28     30     28   1.0000E-03
    222      2      29     28     30     28   1.0000E-03
    223      3      29     28     30     28   1.0000E-03
    224      4      29     28     30     28   1.0000E-03
    225      5      29     28     30     28   1.0000E-03
    226      6      29     28     30     28   1.0000E-03
    227      7      29     28     30     28   1.0000E-03
    228      8      29     28     30     28   1.0000E-03
    229      9      29     28     30     28   1.0000E-03
    230     10      29     28     30     28   1.0000E-03
    231     11      29     28     30     28   1.0000E-03
    232     12      29     28     30     28   1.0000E-03
    233     13      29     28     30     28   1.0000E-03
    234     14      29     28     30     28   1.0000E-03
    235     15      29     28     30     28   1.0000E-03
    236     16      29     28     30     28   1.0000E-03
    237     17      29     28     30     28   1.0000E-03
    238     18      29     28     30     28   1.0000E-03
    239     19      29     28     30     28   1.0000E-03
    240     20      29     28     30     28   1.0000E-03
    241      1      31     20     31     21   1.0000E-03
    242      2      31     20     31     21   1.0000E-03
    243      3      31     20     31     21   1.0000E-03
    244      4      31     20     31     21   1.0000E-03
    245      5      31     20     31     21   1.0000E-03
    246      6      31     20     31     21   1.0000E-03
    247      7      31     20     31     21   1.0000E-03
    248      8      31     20     31     21   1.0000E-03
    249      9      31     20     31     21   1.0000E-03
    250     10      31     20     31     21   1.0000E-03
    251     11      31     20     31     21   1.0000E-03
    252     12      31     20     31     21   1.0000E-03
    253     13      31     20     31     21   1.0000E-03
    254     14      31     20     31     21   1.0000E-03
    255     15      31     20     31     21   1.0000E-03
    256     16      31     20     31     21   1.0000E-03
    257     17      31     20     31     21   1.0000E-03
    258     18      31     20     31     21   1.0000E-03
    259     19      31     20     31     21   1.0000E-03
    260     20      31     20     31     21   1.0000E-03
    261      1      31     29     31     30   1.0000E-03
    262      2      31     29     31     30   1.0000E-03
    263      3      31     29     31     30   1.0000E-03
    264      4      31     29     31     30   1.0000E-03
    265      5      31     29     31     30   1.0000E-03
    266      6      31     29     31     30   1.0000E-03
    267      7      31     29     31     30   1.0000E-03
    268      8      31     29     31     30   1.0000E-03
    269      9      31     29     31     30   1.0000E-03
    270     10      31     29     31     30   1.0000E-03
    271     11      31     29     31     30   1.0000E-03
    272     12      31     29     31     30   1.0000E-03
    273     13      31     29     31     30   1.0000E-03
    274     14      31     29     31     30   1.0000E-03
    275     15      31     29     31     30   1.0000E-03
    276     16      31     29     31     30   1.0000E-03
    277     17      31     29     31     30   1.0000E-03
    278     18      31     29     31     30   1.0000E-03
    279     19      31     29     31     30   1.0000E-03
    280     20      31     29     31     30   1.0000E-03
    281      1      30     29     31     29   1.0000E-03
    282      2      30     29     31     29   1.0000E-03
    283      3      30     29     31     29   1.0000E-03
    284      4      30     29     31     29   1.0000E-03
    285      5      30     29     31     29   1.0000E-03
    286      6      30     29     31     29   1.0000E-03
    287      7      30     29     31     29   1.0000E-03
    288      8      30     29     31     29   1.0000E-03
    289      9      30     29     31     29   1.0000E-03
    290     10      30     29     31     29   1.0000E-03
    291     11      30     29     31     29   1.0000E-03
    292     12      30     29     31     29   1.0000E-03
    293     13      30     29     31     29   1.0000E-03
    294     14      30     29     31     29   1.0000E-03
    295     15      30     29     31     29   1.0000E-03
    296     16      30     29     31     29   1.0000E-03
    297     17      30     29     31     29   1.0000E-03
    298     18      30     29     31     29   1.0000E-03
    299     19      30     29     31     29   1.0000E-03
    300     20      30     29     31     29   1.0000E-03
    301      1      32     19     32     20   1.0000E-03
    302      2      32     19     32     20   1.0000E-03
    303      3      32     19     32     20   1.0000E-03
    304      4      32     19     32     20   1.0000E-03
    305      5      32     19     32     20   1.0000E-03
    306      6      32     19     32     20   1.0000E-03
    307      7      32     19     32     20   1.0000E-03
    308      8      32     19     32     20   1.0000E-03
    309      9      32     19     32     20   1.0000E-03
    310     10      32     19     32     20   1.0000E-03
    311     11      32     19     32     20   1.0000E-03
    312     12      32     19     32     20   1.0000E-03
    313     13      32     19     32     20   1.0000E-03
    314     14      32     19     32     20   1.0000E-03
    315     15      32     19     32     20   1.0000E-03
    316     16      32     19     32     20   1.0000E-03
    317     17      32     19     32     20   1.0000E-03
    318     18      32     19     32     20   1.0000E-03
    319     19      32     19     32     20   1.0000E-03
    320     20      32     19     32     20   1.0000E-03
    321      1      31     20     32     20   1.0000E-03
    322      2      31     20     32     20   1.0000E-03
    323      3      31     20     32     20   1.0000E-03
    324      4      31     20     32     20   1.0000E-03
    325      5      31     20     32     20   1.0000E-03
    326      6      31     20     32     20   1.0000E-03
    327      7      31     20     32     20   1.0000E-03
    328      8      31     20     32     20   1.0000E-03
    329      9      31     20     32     20   1.0000E-03
    330     10      31     20     32     20   1.0000E-03
    331     11      31     20     32     20   1.0000E-03
    332     12      31     20     32     20   1.0000E-03
    333     13      31     20     32     20   1.0000E-03
    334     14      31     20     32     20   1.0000E-03
    335     15      31     20     32     20   1.0000E-03
    336     16      31     20     32     20   1.0000E-03
    337     17      31     20     32     20   1.0000E-03
    338     18      31     20     32     20   1.0000E-03
    339     19      31     20     32     20   1.0000E-03
    340     20      31     20     32     20   1.0000E-03
    341      1      32     30     32     31   1.0000E-03
    342      2      32     30     32     31   1.0000E-03
    343      3      32     30     32     31   1.0000E-03
    344      4      32     30     32     31   1.0000E-03
    345      5      32     30     32     31   1.0000E-03
    346      6      32     30     32     31   1.0000E-03
    347      7      32     30     32     31   1.0000E-03
    348      8      32     30     32     31   1.0000E-03
    349      9      32     30     32     31   1.0000E-03
    350     10      32     30     32     31   1.0000E-03
    351     11      32     30     32     31   1.0000E-03
    352     12      32     30     32     31   1.0000E-03
    353     13      32     30     32     31   1.0000E-03
    354     14      32     30     32     31   1.0000E-03
    355     15      32     30     32     31   1.0000E-03
    356     16      32     30     32     31   1.0000E-03
    357     17      32     30     32     31   1.0000E-03
    358     18      32     30     32     31   1.0000E-03
    359     19      32     30     32     31   1.0000E-03
    360     20      32     30     32     31   1.0000E-03
    361      1      31     30     32     30   1.0000E-03
    362      2      31     30     32     30   1.0000E-03
    363      3      31     30     32     30   1.0000E-03
    364      4      31     30     32     30   1.0000E-03
    365      5      31     30     32     30   1.0000E-03
    366      6      31     30     32     30   1.0000E-03
    367      7      31     30     32     30   1.0000E-03
    368      8      31     30     32     30   1.0000E-03
    369      9      31     30     32     30   1.0000E-03
    370     10      31     30     32     30   1.0000E-03
    371     11      31     30     32     30   1.0000E-03
    372     12      31     30     32     30   1.0000E-03
    373     13      31     30     32     30   1.0000E-03
    374     14      31     30     32     30   1.0000E-03
    375     15      31     30     32     30   1.0000E-03
    376     16      31     30     32     30   1.0000E-03
    377     17      31     30     32     30   1.0000E-03
    378     18      31     30     32     30   1.0000E-03
    379     19      31     30     32     30   1.0000E-03
    380     20      31     30     32     30   1.0000E-03
    381      1      33     18     33     19   1.0000E-03
    382      2      33     18     33     19   1.0000E-03
    383      3      33     18     33     19   1.0000E-03
    384      4      33     18     33     19   1.0000E-03
    385      5      33     18     33     19   1.0000E-03
    386      6      33     18     33     19   1.0000E-03
    387      7      33     18     33     19   1.0000E-03
    388      8      33     18     33     19   1.0000E-03
    389      9      33     18     33     19   1.0000E-03
    390     10      33     18     33     19   1.0000E-03
    391     11      33     18     33     19   1.0000E-03
    392     12      33     18     33     19   1.0000E-03
    393     13      33     18     33     19   1.0000E-03
    394     14      33     18     33     19   1.0000E-03
    395     15      33     18     33     19   1.0000E-03
    396     16      33     18     33     19   1.0000E-03
    397     17      33     18     33     19   1.0000E-03
    398     18      33     18     33     19   1.0000E-03
    399     19      33     18     33     19   1.0000E-03
    400     20      33     18     33     19   1.0000E-03
    401      1      32     19     33     19   1.0000E-03
    402      2      32     19     33     19   1.0000E-03
    403      3      32     19     33     19   1.0000E-03
    404      4      32     19     33     19   1.0000E-03
    405      5      32     19     33     19   1.0000E-03
    406      6      32     19     33     19   1.0000E-03
    407      7      32     19     33     19   1.0000E-03
    408      8      32     19     33     19   1.0000E-03
    409      9      32     19     33     19   1.0000E-03
    410     10      32     19     33     19   1.0000E-03
    411     11      32     19     33     19   1.0000E-03
    412     12      32     19     33     19   1.0000E-03
    413     13      32     19     33     19   1.0000E-03
    414     14      32     19     33     19   1.0000E-03
    415     15      32     19     33     19   1.0000E-03
    416     16      32     19     33     19   1.0000E-03
    417     17      32     19     33     19   1.0000E-03
    418     18      32     19     33     19   1.0000E-03
    419     19      32     19     33     19   1.0000E-03
    420     20      32     19     33     19   1.0000E-03
    421      1      33     30     33     31   1.0000E-03
    422      2      33     30     33     31   1.0000E-03
    423      3      33     30     33     31   1.0000E-03
    424      4      33     30     33     31   1.0000E-03
    425      5      33     30     33     31   1.0000E-03
    426      6      33     30     33     31   1.0000E-03
    427      7      33     30     33     31   1.0000E-03
    428      8      33     30     33     31   1.0000E-03
    429      9      33     30     33     31   1.0000E-03
    430     10      33     30     33     31   1.0000E-03
    431     11      33     30     33     31   1.0000E-03
    432     12      33     30     33     31   1.0000E-03
    433     13      33     30     33     31   1.0000E-03
    434     14      33     30     33     31   1.0000E-03
    435     15      33     30     33     31   1.0000E-03
    436     16      33     30     33     31   1.0000E-03
    437     17      33     30     33     31   1.0000E-03
    438     18      33     30     33     31   1.0000E-03
    439     19      33     30     33     31   1.0000E-03
    440     20      33     30     33     31   1.0000E-03
    441      1      33     30     34     30   1.0000E-03
    442      2      33     30     34     30   1.0000E-03
    443      3      33     30     34     30   1.0000E-03
    444      4      33     30     34     30   1.0000E-03
    445      5      33     30     34     30   1.0000E-03
    446      6      33     30     34     30   1.0000E-03
    447      7      33     30     34     30   1.0000E-03
    448      8      33     30     34     30   1.0000E-03
    449      9      33     30     34     30   1.0000E-03
    450     10      33     30     34     30   1.0000E-03
    451     11      33     30     34     30   1.0000E-03
    452     12      33     30     34     30   1.0000E-03
    453     13      33     30     34     30   1.0000E-03
    454     14      33     30     34     30   1.0000E-03
    455     15      33     30     34     30   1.0000E-03
    456     16      33     30     34     30   1.0000E-03
    457     17      33     30     34     30   1.0000E-03
    458     18      33     30     34     30   1.0000E-03
    459     19      33     30     34     30   1.0000E-03
    460     20      33     30     34     30   1.0000E-03
    461      1      34     18     34     19   1.0000E-03
    462      2      34     18     34     19   1.0000E-03
    463      3      34     18     34     19   1.0000E-03
    464      4      34     18     34     19   1.0000E-03
    465      5      34     18     34     19   1.0000E-03
    466      6      34     18     34     19   1.0000E-03
    467      7      34     18     34     19   1.0000E-03
    468      8      34     18     34     19   1.0000E-03
    469      9      34     18     34     19   1.0000E-03
    470     10      34     18     34     19   1.0000E-03
    471     11      34     18     34     19   1.0000E-03
    472     12      34     18     34     19   1.0000E-03
    473     13      34     18     34     19   1.0000E-03
    474     14      34     18     34     19   1.0000E-03
    475     15      34     18     34     19   1.0000E-03
    476     16      34     18     34     19   1.0000E-03
    477     17      34     18     34     19   1.0000E-03
    478     18      34     18     34     19   1.0000E-03
    479     19      34     18     34     19   1.0000E-03
    480     20      34     18     34     19   1.0000E-03
    481      1      34     29     34     30   1.0000E-03
    482      2      34     29     34     30   1.0000E-03
    483      3      34     29     34     30   1.0000E-03
    484      4      34     29     34     30   1.0000E-03
    485      5      34     29     34     30   1.0000E-03
    486      6      34     29     34     30   1.0000E-03
    487      7      34     29     34     30   1.0000E-03
    488      8      34     29     34     30   1.0000E-03
    489      9      34     29     34     30   1.0000E-03
    490     10      34     29     34     30   1.0000E-03
    491     11      34     29     34     30   1.0000E-03
    492     12      34     29     34     30   1.0000E-03
    493     13      34     29     34     30   1.0000E-03
    494     14      34     29     34     30   1.0000E-03
    495     15      34     29     34     30   1.0000E-03
    496     16      34     29     34     30   1.0000E-03
    497     17      34     29     34     30   1.0000E-03
    498     18      34     29     34     30   1.0000E-03
    499     19      34     29     34     30   1.0000E-03
    500     20      34     29     34     30   1.0000E-03
    501      1      35     17     35     18   1.0000E-03
    502      2      35     17     35     18   1.0000E-03
    503      3      35     17     35     18   1.0000E-03
    504      4      35     17     35     18   1.0000E-03
    505      5      35     17     35     18   1.0000E-03
    506      6      35     17     35     18   1.0000E-03
    507      7      35     17     35     18   1.0000E-03
    508      8      35     17     35     18   1.0000E-03
    509      9      35     17     35     18   1.0000E-03
    510     10      35     17     35     18   1.0000E-03
    511     11      35     17     35     18   1.0000E-03
    512     12      35     17     35     18   1.0000E-03
    513     13      35     17     35     18   1.0000E-03
    514     14      35     17     35     18   1.0000E-03
    515     15      35     17     35     18   1.0000E-03
    516     16      35     17     35     18   1.0000E-03
    517     17      35     17     35     18   1.0000E-03
    518     18      35     17     35     18   1.0000E-03
    519     19      35     17     35     18   1.0000E-03
    520     20      35     17     35     18   1.0000E-03
    521      1      34     18     35     18   1.0000E-03
    522      2      34     18     35     18   1.0000E-03
    523      3      34     18     35     18   1.0000E-03
    524      4      34     18     35     18   1.0000E-03
    525      5      34     18     35     18   1.0000E-03
    526      6      34     18     35     18   1.0000E-03
    527      7      34     18     35     18   1.0000E-03
    528      8      34     18     35     18   1.0000E-03
    529      9      34     18     35     18   1.0000E-03
    530     10      34     18     35     18   1.0000E-03
    531     11      34     18     35     18   1.0000E-03
    532     12      34     18     35     18   1.0000E-03
    533     13      34     18     35     18   1.0000E-03
    534     14      34     18     35     18   1.0000E-03
    535     15      34     18     35     18   1.0000E-03
    536     16      34     18     35     18   1.0000E-03
    537     17      34     18     35     18   1.0000E-03
    538     18      34     18     35     18   1.0000E-03
    539     19      34     18     35     18   1.0000E-03
    540     20      34     18     35     18   1.0000E-03
    541      1      35     29     35     30   1.0000E-03
    542      2      35     29     35     30   1.0000E-03
    543      3      35     29     35     30   1.0000E-03
    544      4      35     29     35     30   1.0000E-03
    545      5      35     29     35     30   1.0000E-03
    546      6      35     29     35     30   1.0000E-03
    547      7      35     29     35     30   1.0000E-03
    548      8      35     29     35     30   1.0000E-03
    549      9      35     29     35     30   1.0000E-03
    550     10      35     29     35     30   1.0000E-03
    551     11      35     29     35     30   1.0000E-03
    552     12      35     29     35     30   1.0000E-03
    553     13      35     29     35     30   1.0000E-03
    554     14      35     29     35     30   1.0000E-03
    555     15      35     29     35     30   1.0000E-03
    556     16      35     29     35     30   1.0000E-03
    557     17      35     29     35     30   1.0000E-03
    558     18      35     29     35     30   1.0000E-03
    559     19      35     29     35     30   1.0000E-03
    560     20      35     29     35     30   1.0000E-03
    561      1      36     17     36     18   1.0000E-03
    562      2      36     17     36     18   1.0000E-03
    563      3      36     17     36     18   1.0000E-03
    564      4      36     17     36     18   1.0000E-03
    565      5      36     17     36     18   1.0000E-03
    566      6      36     17     36     18   1.0000E-03
    567      7      36     17     36     18   1.0000E-03
    568      8      36     17     36     18   1.0000E-03
    569      9      36     17     36     18   1.0000E-03
    570     10      36     17     36     18   1.0000E-03
    571     11      36     17     36     18   1.0000E-03
    572     12      36     17     36     18   1.0000E-03
    573     13      36     17     36     18   1.0000E-03
    574     14      36     17     36     18   1.0000E-03
    575     15      36     17     36     18   1.0000E-03
    576     16      36     17     36     18   1.0000E-03
    577     17      36     17     36     18   1.0000E-03
    578     18      36     17     36     18   1.0000E-03
    579     19      36     17     36     18   1.0000E-03
    580     20      36     17     36     18   1.0000E-03
    581      1      36     29     36     30   1.0000E-03
    582      2      36     29     36     30   1.0000E-03
    583      3      36     29     36     30   1.0000E-03
    584      4      36     29     36     30   1.0000E-03
    585      5      36     29     36     30   1.0000E-03
    586      6      36     29     36     30   1.0000E-03
    587      7      36     29     36     30   1.0000E-03
    588      8      36     29     36     30   1.0000E-03
    589      9      36     29     36     30   1.0000E-03
    590     10      36     29     36     30   1.0000E-03
    591     11      36     29     36     30   1.0000E-03
    592     12      36     29     36     30   1.0000E-03
    593     13      36     29     36     30   1.0000E-03
    594     14      36     29     36     30   1.0000E-03
    595     15      36     29     36     30   1.0000E-03
    596     16      36     29     36     30   1.0000E-03
    597     17      36     29     36     30   1.0000E-03
    598     18      36     29     36     30   1.0000E-03
    599     19      36     29     36     30   1.0000E-03
    600     20      36     29     36     30   1.0000E-03
    601      1      37     17     37     18   1.0000E-03
    602      2      37     17     37     18   1.0000E-03
    603      3      37     17     37     18   1.0000E-03
    604      4      37     17     37     18   1.0000E-03
    605      5      37     17     37     18   1.0000E-03
    606      6      37     17     37     18   1.0000E-03
    607      7      37     17     37     18   1.0000E-03
    608      8      37     17     37     18   1.0000E-03
    609      9      37     17     37     18   1.0000E-03
    610     10      37     17     37     18   1.0000E-03
    611     11      37     17     37     18   1.0000E-03
    612     12      37     17     37     18   1.0000E-03
    613     13      37     17     37     18   1.0000E-03
    614     14      37     17     37     18   1.0000E-03
    615     15      37     17     37     18   1.0000E-03
    616     16      37     17     37     18   1.0000E-03
    617     17      37     17     37     18   1.0000E-03
    618     18      37     17     37     18   1.0000E-03
    619     19      37     17     37     18   1.0000E-03
    620     20      37     17     37     18   1.0000E-03
    621      1      37     29     37     30   1.0000E-03
    622      2      37     29     37     30   1.0000E-03
    623      3      37     29     37     30   1.0000E-03
    624      4      37     29     37     30   1.0000E-03
    625      5      37     29     37     30   1.0000E-03
    626      6      37     29     37     30   1.0000E-03
    627      7      37     29     37     30   1.0000E-03
    628      8      37     29     37     30   1.0000E-03
    629      9      37     29     37     30   1.0000E-03
    630     10      37     29     37     30   1.0000E-03
    631     11      37     29     37     30   1.0000E-03
    632     12      37     29     37     30   1.0000E-03
    633     13      37     29     37     30   1.0000E-03
    634     14      37     29     37     30   1.0000E-03
    635     15      37     29     37     30   1.0000E-03
    636     16      37     29     37     30   1.0000E-03
    637     17      37     29     37     30   1.0000E-03
    638     18      37     29     37     30   1.0000E-03
    639     19      37     29     37     30   1.0000E-03
    640     20      37     29     37     30   1.0000E-03
    641      1      37     29     38     29   1.0000E-03
    642      2      37     29     38     29   1.0000E-03
    643      3      37     29     38     29   1.0000E-03
    644      4      37     29     38     29   1.0000E-03
    645      5      37     29     38     29   1.0000E-03
    646      6      37     29     38     29   1.0000E-03
    647      7      37     29     38     29   1.0000E-03
    648      8      37     29     38     29   1.0000E-03
    649      9      37     29     38     29   1.0000E-03
    650     10      37     29     38     29   1.0000E-03
    651     11      37     29     38     29   1.0000E-03
    652     12      37     29     38     29   1.0000E-03
    653     13      37     29     38     29   1.0000E-03
    654     14      37     29     38     29   1.0000E-03
    655     15      37     29     38     29   1.0000E-03
    656     16      37     29     38     29   1.0000E-03
    657     17      37     29     38     29   1.0000E-03
    658     18      37     29     38     29   1.0000E-03
    659     19      37     29     38     29   1.0000E-03
    660     20      37     29     38     29   1.0000E-03
    661      1      38     17     38     18   1.0000E-03
    662      2      38     17     38     18   1.0000E-03
    663      3      38     17     38     18   1.0000E-03
    664      4      38     17     38     18   1.0000E-03
    665      5      38     17     38     18   1.0000E-03
    666      6      38     17     38     18   1.0000E-03
    667      7      38     17     38     18   1.0000E-03
    668      8      38     17     38     18   1.0000E-03
    669      9      38     17     38     18   1.0000E-03
    670     10      38     17     38     18   1.0000E-03
    671     11      38     17     38     18   1.0000E-03
    672     12      38     17     38     18   1.0000E-03
    673     13      38     17     38     18   1.0000E-03
    674     14      38     17     38     18   1.0000E-03
    675     15      38     17     38     18   1.0000E-03
    676     16      38     17     38     18   1.0000E-03
    677     17      38     17     38     18   1.0000E-03
    678     18      38     17     38     18   1.0000E-03
    679     19      38     17     38     18   1.0000E-03
    680     20      38     17     38     18   1.0000E-03
    681      1      38     28     38     29   1.0000E-03
    682      2      38     28     38     29   1.0000E-03
    683      3      38     28     38     29   1.0000E-03
    684      4      38     28     38     29   1.0000E-03
    685      5      38     28     38     29   1.0000E-03
    686      6      38     28     38     29   1.0000E-03
    687      7      38     28     38     29   1.0000E-03
    688      8      38     28     38     29   1.0000E-03
    689      9      38     28     38     29   1.0000E-03
    690     10      38     28     38     29   1.0000E-03
    691     11      38     28     38     29   1.0000E-03
    692     12      38     28     38     29   1.0000E-03
    693     13      38     28     38     29   1.0000E-03
    694     14      38     28     38     29   1.0000E-03
    695     15      38     28     38     29   1.0000E-03
    696     16      38     28     38     29   1.0000E-03
    697     17      38     28     38     29   1.0000E-03
    698     18      38     28     38     29   1.0000E-03
    699     19      38     28     38     29   1.0000E-03
    700     20      38     28     38     29   1.0000E-03
    701      1      39     17     39     18   1.0000E-03
    702      2      39     17     39     18   1.0000E-03
    703      3      39     17     39     18   1.0000E-03
    704      4      39     17     39     18   1.0000E-03
    705      5      39     17     39     18   1.0000E-03
    706      6      39     17     39     18   1.0000E-03
    707      7      39     17     39     18   1.0000E-03
    708      8      39     17     39     18   1.0000E-03
    709      9      39     17     39     18   1.0000E-03
    710     10      39     17     39     18   1.0000E-03
    711     11      39     17     39     18   1.0000E-03
    712     12      39     17     39     18   1.0000E-03
    713     13      39     17     39     18   1.0000E-03
    714     14      39     17     39     18   1.0000E-03
    715     15      39     17     39     18   1.0000E-03
    716     16      39     17     39     18   1.0000E-03
    717     17      39     17     39     18   1.0000E-03
    718     18      39     17     39     18   1.0000E-03
    719     19      39     17     39     18   1.0000E-03
    720     20      39     17     39     18   1.0000E-03
    721      1      39     28     39     29   1.0000E-03
    722      2      39     28     39     29   1.0000E-03
    723      3      39     28     39     29   1.0000E-03
    724      4      39     28     39     29   1.0000E-03
    725      5      39     28     39     29   1.0000E-03
    726      6      39     28     39     29   1.0000E-03
    727      7      39     28     39     29   1.0000E-03
    728      8      39     28     39     29   1.0000E-03
    729      9      39     28     39     29   1.0000E-03
    730     10      39     28     39     29   1.0000E-03
    731     11      39     28     39     29   1.0000E-03
    732     12      39     28     39     29   1.0000E-03
    733     13      39     28     39     29   1.0000E-03
    734     14      39     28     39     29   1.0000E-03
    735     15      39     28     39     29   1.0000E-03
    736     16      39     28     39     29   1.0000E-03
    737     17      39     28     39     29   1.0000E-03
    738     18      39     28     39     29   1.0000E-03
    739     19      39     28     39     29   1.0000E-03
    740     20      39     28     39     29   1.0000E-03
    741      1      40     17     40     18   1.0000E-03
    742      2      40     17     40     18   1.0000E-03
    743      3      40     17     40     18   1.0000E-03
    744      4      40     17     40     18   1.0000E-03
    745      5      40     17     40     18   1.0000E-03
    746      6      40     17     40     18   1.0000E-03
    747      7      40     17     40     18   1.0000E-03
    748      8      40     17     40     18   1.0000E-03
    749      9      40     17     40     18   1.0000E-03
    750     10      40     17     40     18   1.0000E-03
    751     11      40     17     40     18   1.0000E-03
    752     12      40     17     40     18   1.0000E-03
    753     13      40     17     40     18   1.0000E-03
    754     14      40     17     40     18   1.0000E-03
    755     15      40     17     40     18   1.0000E-03
    756     16      40     17     40     18   1.0000E-03
    757     17      40     17     40     18   1.0000E-03
    758     18      40     17     40     18   1.0000E-03
    759     19      40     17     40     18   1.0000E-03
    760     20      40     17     40     18   1.0000E-03
    761      1      40     28     40     29   1.0000E-03
    762      2      40     28     40     29   1.0000E-03
    763      3      40     28     40     29   1.0000E-03
    764      4      40     28     40     29   1.0000E-03
    765      5      40     28     40     29   1.0000E-03
    766      6      40     28     40     29   1.0000E-03
    767      7      40     28     40     29   1.0000E-03
    768      8      40     28     40     29   1.0000E-03
    769      9      40     28     40     29   1.0000E-03
    770     10      40     28     40     29   1.0000E-03
    771     11      40     28     40     29   1.0000E-03
    772     12      40     28     40     29   1.0000E-03
    773     13      40     28     40     29   1.0000E-03
    774     14      40     28     40     29   1.0000E-03
    775     15      40     28     40     29   1.0000E-03
    776     16      40     28     40     29   1.0000E-03
    777     17      40     28     40     29   1.0000E-03
    778     18      40     28     40     29   1.0000E-03
    779     19      40     28     40     29   1.0000E-03
    780     20      40     28     40     29   1.0000E-03
    781      1      40     28     41     28   1.0000E-03
    782      2      40     28     41     28   1.0000E-03
    783      3      40     28     41     28   1.0000E-03
    784      4      40     28     41     28   1.0000E-03
    785      5      40     28     41     28   1.0000E-03
    786      6      40     28     41     28   1.0000E-03
    787      7      40     28     41     28   1.0000E-03
    788      8      40     28     41     28   1.0000E-03
    789      9      40     28     41     28   1.0000E-03
    790     10      40     28     41     28   1.0000E-03
    791     11      40     28     41     28   1.0000E-03
    792     12      40     28     41     28   1.0000E-03
    793     13      40     28     41     28   1.0000E-03
    794     14      40     28     41     28   1.0000E-03
    795     15      40     28     41     28   1.0000E-03
    796     16      40     28     41     28   1.0000E-03
    797     17      40     28     41     28   1.0000E-03
    798     18      40     28     41     28   1.0000E-03
    799     19      40     28     41     28   1.0000E-03
    800     20      40     28     41     28   1.0000E-03
    801      1      41     17     41     18   1.0000E-03
    802      2      41     17     41     18   1.0000E-03
    803      3      41     17     41     18   1.0000E-03
    804      4      41     17     41     18   1.0000E-03
    805      5      41     17     41     18   1.0000E-03
    806      6      41     17     41     18   1.0000E-03
    807      7      41     17     41     18   1.0000E-03
    808      8      41     17     41     18   1.0000E-03
    809      9      41     17     41     18   1.0000E-03
    810     10      41     17     41     18   1.0000E-03
    811     11      41     17     41     18   1.0000E-03
    812     12      41     17     41     18   1.0000E-03
    813     13      41     17     41     18   1.0000E-03
    814     14      41     17     41     18   1.0000E-03
    815     15      41     17     41     18   1.0000E-03
    816     16      41     17     41     18   1.0000E-03
    817     17      41     17     41     18   1.0000E-03
    818     18      41     17     41     18   1.0000E-03
    819     19      41     17     41     18   1.0000E-03
    820     20      41     17     41     18   1.0000E-03
    821      1      41     27     41     28   1.0000E-03
    822      2      41     27     41     28   1.0000E-03
    823      3      41     27     41     28   1.0000E-03
    824      4      41     27     41     28   1.0000E-03
    825      5      41     27     41     28   1.0000E-03
    826      6      41     27     41     28   1.0000E-03
    827      7      41     27     41     28   1.0000E-03
    828      8      41     27     41     28   1.0000E-03
    829      9      41     27     41     28   1.0000E-03
    830     10      41     27     41     28   1.0000E-03
    831     11      41     27     41     28   1.0000E-03
    832     12      41     27     41     28   1.0000E-03
    833     13      41     27     41     28   1.0000E-03
    834     14      41     27     41     28   1.0000E-03
    835     15      41     27     41     28   1.0000E-03
    836     16      41     27     41     28   1.0000E-03
    837     17      41     27     41     28   1.0000E-03
    838     18      41     27     41     28   1.0000E-03
    839     19      41     27     41     28   1.0000E-03
    840     20      41     27     41     28   1.0000E-03
    841      1      42     17     42     18   1.0000E-03
    842      2      42     17     42     18   1.0000E-03
    843      3      42     17     42     18   1.0000E-03
    844      4      42     17     42     18   1.0000E-03
    845      5      42     17     42     18   1.0000E-03
    846      6      42     17     42     18   1.0000E-03
    847      7      42     17     42     18   1.0000E-03
    848      8      42     17     42     18   1.0000E-03
    849      9      42     17     42     18   1.0000E-03
    850     10      42     17     42     18   1.0000E-03
    851     11      42     17     42     18   1.0000E-03
    852     12      42     17     42     18   1.0000E-03
    853     13      42     17     42     18   1.0000E-03
    854     14      42     17     42     18   1.0000E-03
    855     15      42     17     42     18   1.0000E-03
    856     16      42     17     42     18   1.0000E-03
    857     17      42     17     42     18   1.0000E-03
    858     18      42     17     42     18   1.0000E-03
    859     19      42     17     42     18   1.0000E-03
    860     20      42     17     42     18   1.0000E-03
    861      1      42     27     42     28   1.0000E-03
    862      2      42     27     42     28   1.0000E-03
    863      3      42     27     42     28   1.0000E-03
    864      4      42     27     42     28   1.0000E-03
    865      5      42     27     42     28   1.0000E-03
    866      6      42     27     42     28   1.0000E-03
    867      7      42     27     42     28   1.0000E-03
    868      8      42     27     42     28   1.0000E-03
    869      9      42     27     42     28   1.0000E-03
    870     10      42     27     42     28   1.0000E-03
    871     11      42     27     42     28   1.0000E-03
    872     12      42     27     42     28   1.0000E-03
    873     13      42     27     42     28   1.0000E-03
    874     14      42     27     42     28   1.0000E-03
    875     15      42     27     42     28   1.0000E-03
    876     16      42     27     42     28   1.0000E-03
    877     17      42     27     42     28   1.0000E-03
    878     18      42     27     42     28   1.0000E-03
    879     19      42     27     42     28   1.0000E-03
    880     20      42     27     42     28   1.0000E-03
    881      1      43     17     43     18   1.0000E-03
    882      2      43     17     43     18   1.0000E-03
    883      3      43     17     43     18   1.0000E-03
    884      4      43     17     43     18   1.0000E-03
    885      5      43     17     43     18   1.0000E-03
    886      6      43     17     43     18   1.0000E-03
    887      7      43     17     43     18   1.0000E-03
    888      8      43     17     43     18   1.0000E-03
    889      9      43     17     43     18   1.0000E-03
    890     10      43     17     43     18   1.0000E-03
    891     11      43     17     43     18   1.0000E-03
    892     12      43     17     43     18   1.0000E-03
    893     13      43     17     43     18   1.0000E-03
    894     14      43     17     43     18   1.0000E-03
    895     15      43     17     43     18   1.0000E-03
    896     16      43     17     43     18   1.0000E-03
    897     17      43     17     43     18   1.0000E-03
    898     18      43     17     43     18   1.0000E-03
    899     19      43     17     43     18   1.0000E-03
    900     20      43     17     43     18   1.0000E-03
    901      1      43     18     44     18   1.0000E-03
    902      2      43     18     44     18   1.0000E-03
    903      3      43     18     44     18   1.0000E-03
    904      4      43     18     44     18   1.0000E-03
    905      5      43     18     44     18   1.0000E-03
    906      6      43     18     44     18   1.0000E-03
    907      7      43     18     44     18   1.0000E-03
    908      8      43     18     44     18   1.0000E-03
    909      9      43     18     44     18   1.0000E-03
    910     10      43     18     44     18   1.0000E-03
    911     11      43     18     44     18   1.0000E-03
    912     12      43     18     44     18   1.0000E-03
    913     13      43     18     44     18   1.0000E-03
    914     14      43     18     44     18   1.0000E-03
    915     15      43     18     44     18   1.0000E-03
    916     16      43     18     44     18   1.0000E-03
    917     17      43     18     44     18   1.0000E-03
    918     18      43     18     44     18   1.0000E-03
    919     19      43     18     44     18   1.0000E-03
    920     20      43     18     44     18   1.0000E-03
    921      1      43     27     43     28   1.0000E-03
    922      2      43     27     43     28   1.0000E-03
    923      3      43     27     43     28   1.0000E-03
    924      4      43     27     43     28   1.0000E-03
    925      5      43     27     43     28   1.0000E-03
    926      6      43     27     43     28   1.0000E-03
    927      7      43     27     43     28   1.0000E-03
    928      8      43     27     43     28   1.0000E-03
    929      9      43     27     43     28   1.0000E-03
    930     10      43     27     43     28   1.0000E-03
    931     11      43     27     43     28   1.0000E-03
    932     12      43     27     43     28   1.0000E-03
    933     13      43     27     43     28   1.0000E-03
    934     14      43     27     43     28   1.0000E-03
    935     15      43     27     43     28   1.0000E-03
    936     16      43     27     43     28   1.0000E-03
    937     17      43     27     43     28   1.0000E-03
    938     18      43     27     43     28   1.0000E-03
    939     19      43     27     43     28   1.0000E-03
    940     20      43     27     43     28   1.0000E-03
    941      1      44     18     44     19   1.0000E-03
    942      2      44     18     44     19   1.0000E-03
    943      3      44     18     44     19   1.0000E-03
    944      4      44     18     44     19   1.0000E-03
    945      5      44     18     44     19   1.0000E-03
    946      6      44     18     44     19   1.0000E-03
    947      7      44     18     44     19   1.0000E-03
    948      8      44     18     44     19   1.0000E-03
    949      9      44     18     44     19   1.0000E-03
    950     10      44     18     44     19   1.0000E-03
    951     11      44     18     44     19   1.0000E-03
    952     12      44     18     44     19   1.0000E-03
    953     13      44     18     44     19   1.0000E-03
    954     14      44     18     44     19   1.0000E-03
    955     15      44     18     44     19   1.0000E-03
    956     16      44     18     44     19   1.0000E-03
    957     17      44     18     44     19   1.0000E-03
    958     18      44     18     44     19   1.0000E-03
    959     19      44     18     44     19   1.0000E-03
    960     20      44     18     44     19   1.0000E-03
    961      1      44     28     44     29   1.0000E-03
    962      2      44     28     44     29   1.0000E-03
    963      3      44     28     44     29   1.0000E-03
    964      4      44     28     44     29   1.0000E-03
    965      5      44     28     44     29   1.0000E-03
    966      6      44     28     44     29   1.0000E-03
    967      7      44     28     44     29   1.0000E-03
    968      8      44     28     44     29   1.0000E-03
    969      9      44     28     44     29   1.0000E-03
    970     10      44     28     44     29   1.0000E-03
    971     11      44     28     44     29   1.0000E-03
    972     12      44     28     44     29   1.0000E-03
    973     13      44     28     44     29   1.0000E-03
    974     14      44     28     44     29   1.0000E-03
    975     15      44     28     44     29   1.0000E-03
    976     16      44     28     44     29   1.0000E-03
    977     17      44     28     44     29   1.0000E-03
    978     18      44     28     44     29   1.0000E-03
    979     19      44     28     44     29   1.0000E-03
    980     20      44     28     44     29   1.0000E-03
    981      1      43     28     44     28   1.0000E-03
    982      2      43     28     44     28   1.0000E-03
    983      3      43     28     44     28   1.0000E-03
[...]
   1279     19      49     28     49     29   1.0000E-03
   1280     20      49     28     49     29   1.0000E-03
   1281      1      50     22     50     23   1.0000E-03
   1282      2      50     22     50     23   1.0000E-03
   1283      3      50     22     50     23   1.0000E-03
   1284      4      50     22     50     23   1.0000E-03
   1285      5      50     22     50     23   1.0000E-03
   1286      6      50     22     50     23   1.0000E-03
   1287      7      50     22     50     23   1.0000E-03
   1288      8      50     22     50     23   1.0000E-03
   1289      9      50     22     50     23   1.0000E-03
   1290     10      50     22     50     23   1.0000E-03
   1291     11      50     22     50     23   1.0000E-03
   1292     12      50     22     50     23   1.0000E-03
   1293     13      50     22     50     23   1.0000E-03
   1294     14      50     22     50     23   1.0000E-03
   1295     15      50     22     50     23   1.0000E-03
   1296     16      50     22     50     23   1.0000E-03
   1297     17      50     22     50     23   1.0000E-03
   1298     18      50     22     50     23   1.0000E-03
   1299     19      50     22     50     23   1.0000E-03
   1300     20      50     22     50     23   1.0000E-03
   1301      1      50     23     51     23   1.0000E-03
   1302      2      50     23     51     23   1.0000E-03
   1303      3      50     23     51     23   1.0000E-03
   1304      4      50     23     51     23   1.0000E-03
   1305      5      50     23     51     23   1.0000E-03
   1306      6      50     23     51     23   1.0000E-03
   1307      7      50     23     51     23   1.0000E-03
   1308      8      50     23     51     23   1.0000E-03
   1309      9      50     23     51     23   1.0000E-03
   1310     10      50     23     51     23   1.0000E-03
   1311     11      50     23     51     23   1.0000E-03
   1312     12      50     23     51     23   1.0000E-03
   1313     13      50     23     51     23   1.0000E-03
   1314     14      50     23     51     23   1.0000E-03
   1315     15      50     23     51     23   1.0000E-03
   1316     16      50     23     51     23   1.0000E-03
   1317     17      50     23     51     23   1.0000E-03
   1318     18      50     23     51     23   1.0000E-03
   1319     19      50     23     51     23   1.0000E-03
   1320     20      50     23     51     23   1.0000E-03
   1321      1      50     28     50     29   1.0000E-03
   1322      2      50     28     50     29   1.0000E-03
   1323      3      50     28     50     29   1.0000E-03
   1324      4      50     28     50     29   1.0000E-03
   1325      5      50     28     50     29   1.0000E-03
   1326      6      50     28     50     29   1.0000E-03
   1327      7      50     28     50     29   1.0000E-03
   1328      8      50     28     50     29   1.0000E-03
   1329      9      50     28     50     29   1.0000E-03
   1330     10      50     28     50     29   1.0000E-03
   1331     11      50     28     50     29   1.0000E-03
   1332     12      50     28     50     29   1.0000E-03
   1333     13      50     28     50     29   1.0000E-03
   1334     14      50     28     50     29   1.0000E-03
   1335     15      50     28     50     29   1.0000E-03
   1336     16      50     28     50     29   1.0000E-03
   1337     17      50     28     50     29   1.0000E-03
   1338     18      50     28     50     29   1.0000E-03
   1339     19      50     28     50     29   1.0000E-03
   1340     20      50     28     50     29   1.0000E-03
   1341      1      50     28     51     28   1.0000E-03
   1342      2      50     28     51     28   1.0000E-03
   1343      3      50     28     51     28   1.0000E-03
   1344      4      50     28     51     28   1.0000E-03
   1345      5      50     28     51     28   1.0000E-03
   1346      6      50     28     51     28   1.0000E-03
   1347      7      50     28     51     28   1.0000E-03
   1348      8      50     28     51     28   1.0000E-03
   1349      9      50     28     51     28   1.0000E-03
   1350     10      50     28     51     28   1.0000E-03
   1351     11      50     28     51     28   1.0000E-03
   1352     12      50     28     51     28   1.0000E-03
   1353     13      50     28     51     28   1.0000E-03
   1354     14      50     28     51     28   1.0000E-03
   1355     15      50     28     51     28   1.0000E-03
   1356     16      50     28     51     28   1.0000E-03
   1357     17      50     28     51     28   1.0000E-03
   1358     18      50     28     51     28   1.0000E-03
   1359     19      50     28     51     28   1.0000E-03
   1360     20      50     28     51     28   1.0000E-03
   1361      1      51     23     51     24   1.0000E-03
   1362      2      51     23     51     24   1.0000E-03
   1363      3      51     23     51     24   1.0000E-03
   1364      4      51     23     51     24   1.0000E-03
   1365      5      51     23     51     24   1.0000E-03
   1366      6      51     23     51     24   1.0000E-03
   1367      7      51     23     51     24   1.0000E-03
   1368      8      51     23     51     24   1.0000E-03
   1369      9      51     23     51     24   1.0000E-03
   1370     10      51     23     51     24   1.0000E-03
   1371     11      51     23     51     24   1.0000E-03
   1372     12      51     23     51     24   1.0000E-03
   1373     13      51     23     51     24   1.0000E-03
   1374     14      51     23     51     24   1.0000E-03
   1375     15      51     23     51     24   1.0000E-03
   1376     16      51     23     51     24   1.0000E-03
   1377     17      51     23     51     24   1.0000E-03
   1378     18      51     23     51     24   1.0000E-03
   1379     19      51     23     51     24   1.0000E-03
   1380     20      51     23     51     24   1.0000E-03
   1381      1      51     25     52     25   1.0000E-03
   1382      2      51     25     52     25   1.0000E-03
   1383      3      51     25     52     25   1.0000E-03
   1384      4      51     25     52     25   1.0000E-03
   1385      5      51     25     52     25   1.0000E-03
   1386      6      51     25     52     25   1.0000E-03
   1387      7      51     25     52     25   1.0000E-03
   1388      8      51     25     52     25   1.0000E-03
   1389      9      51     25     52     25   1.0000E-03
   1390     10      51     25     52     25   1.0000E-03
   1391     11      51     25     52     25   1.0000E-03
   1392     12      51     25     52     25   1.0000E-03
   1393     13      51     25     52     25   1.0000E-03
   1394     14      51     25     52     25   1.0000E-03
   1395     15      51     25     52     25   1.0000E-03
   1396     16      51     25     52     25   1.0000E-03
   1397     17      51     25     52     25   1.0000E-03
   1398     18      51     25     52     25   1.0000E-03
   1399     19      51     25     52     25   1.0000E-03
   1400     20      51     25     52     25   1.0000E-03
   1401      1      51     26     52     26   1.0000E-03
   1402      2      51     26     52     26   1.0000E-03
   1403      3      51     26     52     26   1.0000E-03
   1404      4      51     26     52     26   1.0000E-03
   1405      5      51     26     52     26   1.0000E-03
   1406      6      51     26     52     26   1.0000E-03
   1407      7      51     26     52     26   1.0000E-03
   1408      8      51     26     52     26   1.0000E-03
   1409      9      51     26     52     26   1.0000E-03
   1410     10      51     26     52     26   1.0000E-03
   1411     11      51     26     52     26   1.0000E-03
   1412     12      51     26     52     26   1.0000E-03
   1413     13      51     26     52     26   1.0000E-03
   1414     14      51     26     52     26   1.0000E-03
   1415     15      51     26     52     26   1.0000E-03
   1416     16      51     26     52     26   1.0000E-03
   1417     17      51     26     52     26   1.0000E-03
   1418     18      51     26     52     26   1.0000E-03
   1419     19      51     26     52     26   1.0000E-03
   1420     20      51     26     52     26   1.0000E-03
   1421      1      51     27     51     28   1.0000E-03
   1422      2      51     27     51     28   1.0000E-03
   1423      3      51     27     51     28   1.0000E-03
   1424      4      51     27     51     28   1.0000E-03
   1425      5      51     27     51     28   1.0000E-03
   1426      6      51     27     51     28   1.0000E-03
   1427      7      51     27     51     28   1.0000E-03
   1428      8      51     27     51     28   1.0000E-03
   1429      9      51     27     51     28   1.0000E-03
   1430     10      51     27     51     28   1.0000E-03
   1431     11      51     27     51     28   1.0000E-03
   1432     12      51     27     51     28   1.0000E-03
   1433     13      51     27     51     28   1.0000E-03
   1434     14      51     27     51     28   1.0000E-03
   1435     15      51     27     51     28   1.0000E-03
   1436     16      51     27     51     28   1.0000E-03
   1437     17      51     27     51     28   1.0000E-03
   1438     18      51     27     51     28   1.0000E-03
   1439     19      51     27     51     28   1.0000E-03
   1440     20      51     27     51     28   1.0000E-03
   1441      1      51     27     52     27   1.0000E-03
   1442      2      51     27     52     27   1.0000E-03
   1443      3      51     27     52     27   1.0000E-03
   1444      4      51     27     52     27   1.0000E-03
   1445      5      51     27     52     27   1.0000E-03
   1446      6      51     27     52     27   1.0000E-03
   1447      7      51     27     52     27   1.0000E-03
   1448      8      51     27     52     27   1.0000E-03
   1449      9      51     27     52     27   1.0000E-03
   1450     10      51     27     52     27   1.0000E-03
   1451     11      51     27     52     27   1.0000E-03
   1452     12      51     27     52     27   1.0000E-03
   1453     13      51     27     52     27   1.0000E-03
   1454     14      51     27     52     27   1.0000E-03
   1455     15      51     27     52     27   1.0000E-03
   1456     16      51     27     52     27   1.0000E-03
   1457     17      51     27     52     27   1.0000E-03
   1458     18      51     27     52     27   1.0000E-03
   1459     19      51     27     52     27   1.0000E-03
   1460     20      51     27     52     27   1.0000E-03
   1461      1      52     23     52     24   1.0000E-03
   1462      2      52     23     52     24   1.0000E-03
   1463      3      52     23     52     24   1.0000E-03
   1464      4      52     23     52     24   1.0000E-03
   1465      5      52     23     52     24   1.0000E-03
   1466      6      52     23     52     24   1.0000E-03
   1467      7      52     23     52     24   1.0000E-03
   1468      8      52     23     52     24   1.0000E-03
   1469      9      52     23     52     24   1.0000E-03
   1470     10      52     23     52     24   1.0000E-03
   1471     11      52     23     52     24   1.0000E-03
   1472     12      52     23     52     24   1.0000E-03
   1473     13      52     23     52     24   1.0000E-03
   1474     14      52     23     52     24   1.0000E-03
   1475     15      52     23     52     24   1.0000E-03
   1476     16      52     23     52     24   1.0000E-03
   1477     17      52     23     52     24   1.0000E-03
   1478     18      52     23     52     24   1.0000E-03
   1479     19      52     23     52     24   1.0000E-03
   1480     20      52     23     52     24   1.0000E-03
   1481      1      52     24     52     25   1.0000E-03
   1482      2      52     24     52     25   1.0000E-03
   1483      3      52     24     52     25   1.0000E-03
   1484      4      52     24     52     25   1.0000E-03
   1485      5      52     24     52     25   1.0000E-03
   1486      6      52     24     52     25   1.0000E-03
   1487      7      52     24     52     25   1.0000E-03
   1488      8      52     24     52     25   1.0000E-03
   1489      9      52     24     52     25   1.0000E-03
   1490     10      52     24     52     25   1.0000E-03
   1491     11      52     24     52     25   1.0000E-03
   1492     12      52     24     52     25   1.0000E-03
   1493     13      52     24     52     25   1.0000E-03
   1494     14      52     24     52     25   1.0000E-03
   1495     15      52     24     52     25   1.0000E-03
   1496     16      52     24     52     25   1.0000E-03
   1497     17      52     24     52     25   1.0000E-03
   1498     18      52     24     52     25   1.0000E-03
   1499     19      52     24     52     25   1.0000E-03
   1500     20      52     24     52     25   1.0000E-03
   1501      1      52     24     53     24   1.0000E-03
   1502      2      52     24     53     24   1.0000E-03
   1503      3      52     24     53     24   1.0000E-03
   1504      4      52     24     53     24   1.0000E-03
   1505      5      52     24     53     24   1.0000E-03
   1506      6      52     24     53     24   1.0000E-03
   1507      7      52     24     53     24   1.0000E-03
   1508      8      52     24     53     24   1.0000E-03
   1509      9      52     24     53     24   1.0000E-03
   1510     10      52     24     53     24   1.0000E-03
   1511     11      52     24     53     24   1.0000E-03
   1512     12      52     24     53     24   1.0000E-03
   1513     13      52     24     53     24   1.0000E-03
   1514     14      52     24     53     24   1.0000E-03
   1515     15      52     24     53     24   1.0000E-03
   1516     16      52     24     53     24   1.0000E-03
   1517     17      52     24     53     24   1.0000E-03
   1518     18      52     24     53     24   1.0000E-03
   1519     19      52     24     53     24   1.0000E-03
   1520     20      52     24     53     24   1.0000E-03

   1520 HFB BARRIERS
 # GMG package for  MODFLOW-2005, generated by Flopy.
 -------------------------------------------------
 GMG -- PCG GEOMETRIC MULTI-GRID SOLUTION PACKAGE:
 -------------------------------------------------
 RCLOSE  = 1.00E-05; INNER CONVERGENCE CRITERION
 IITER   =       30; MAX INNER ITERATIONS            
 HCLOSE  = 1.00E-05; OUTER CONVERGENCE CRITERION
 MXIITER =       50; MAX OUTER ITERATIONS            
 DAMP    = 1.00E+00; DAMPING PARAMETER          
 IADAMP  =        0; ADAPTIVE DAMPING FLAG           
 IOUTGMG =        0; OUTPUT CONTROL FLAG             
 ISM     =        0; SMOOTHER FLAG                   
 ISC     =        0; COARSENING FLAG                 
 RELAX   = 0.00E+00; RELAXATION PARAMETER       
 -------------------------------------------------
 ILU SMOOTHING IMPLEMENTED
 FULL COARSENING
 -------------------------------------------------
    9 MEGABYTES OF MEMORY ALLOCATED BY GMG
 -------------------------------------------------



 ***Link-MT3DMS Package v7***
 OPENING LINK-MT3DMS OUTPUT FILE: mt3d_link.ftl                                                                                                                                                                                           
 ON UNIT NUMBER:    54
 FILE TYPE: UNFORMATTED
 HEADER OPTION: EXTENDED
 ***Link-MT3DMS Package v7***

1
                            STRESS PERIOD NO.    1, LENGTH =   10950.00    
                            -----------------------------------------------

                              NUMBER OF TIME STEPS =     1

                               MULTIPLIER FOR DELT =     1.000

                            INITIAL TIME STEP SIZE =   10950.00    

 WELL NO.  LAYER   ROW   COL   STRESS RATE         
 --------------------------------------------------
      1      9     39     26     -0.1739    
      2     10     39     26     -0.2643    
      3     11     39     26     -0.1112    
      4     12     39     26     -0.6678    
      5     13     39     26      -71.96    
      6     14     39     26     -0.1799    
      7     15     39     26     -0.3520    
      8     16     39     26      -4.960    
      9     17     39     26      -1.336    
     10     18     39     26     -0.3311E-03
     11      9     31     24     -0.5947    
     12     10     31     24      -25.95    
     13     11     31     24      -38.79    
     14     12     31     24      -7.724    
     15     13     31     24     -0.3739    
     16     14     31     24      -3.660    
     17     15     31     24      -1.052    
     18     16     31     24     -0.6562E-01
     19     17     31     24      -1.387    
     20     18     31     24     -0.4002    
     21      9     33     22      -3.333    
     22     10     33     22      -7.429    
     23     11     33     22      -32.79    
     24     12     33     22      -1.846    
     25     13     33     22      -22.44    
     26     14     33     22      -4.268    
     27     15     33     22      -1.669    
     28     16     33     22      -4.278    
     29     17     33     22     -0.1669    
     30     18     33     22      -1.772    

     30 WELLS



                           RECHARGE
 READING ON UNIT   19 WITH FORMAT: (51E15.6)           
 
 SOLVING FOR HEAD 

 OUTPUT CONTROL FOR STRESS PERIOD    1   TIME STEP    1
    SAVE HEAD FOR ALL LAYERS
    SAVE BUDGET
 UBDSV2 SAVING "   CONSTANT HEAD" ON UNIT1001 AT TIME STEP  1, STRESS PERIOD   1
 UBDSV1 SAVING "FLOW RIGHT FACE " ON UNIT1001 AT TIME STEP  1, STRESS PERIOD   1
 UBDSV1 SAVING "FLOW FRONT FACE " ON UNIT1001 AT TIME STEP  1, STRESS PERIOD   1
 UBDSV1 SAVING "FLOW LOWER FACE " ON UNIT1001 AT TIME STEP  1, STRESS PERIOD   1
 UBDSV4 SAVING "           WELLS" ON UNIT1001 AT TIME STEP  1, STRESS PERIOD   1
 UBDSV3 SAVING "        RECHARGE" ON UNIT1001 AT TIME STEP  1, STRESS PERIOD   1

 SAVING SATURATED THICKNESS AND FLOW TERMS ON UNIT   54 FOR MT3DMS
 BY THE LINK-MT3DMS PACKAGE V7 AT TIME STEP    1, STRESS PERIOD    1


 HEAD WILL BE SAVED ON UNIT   51 AT END OF TIME STEP    1, STRESS PERIOD    1
1
  VOLUMETRIC BUDGET FOR ENTIRE MODEL AT END OF TIME STEP    1, STRESS PERIOD   1
  ------------------------------------------------------------------------------

     CUMULATIVE VOLUMES      L**3       RATES FOR THIS TIME STEP      L**3/T
     ------------------                 ------------------------

           IN:                                      IN:
           ---                                      ---
             STORAGE =           0.0000               STORAGE =           0.0000
       CONSTANT HEAD =    13352698.0000         CONSTANT HEAD =        1219.4244
               WELLS =           0.0000                 WELLS =           0.0000
            RECHARGE =    20039764.0000              RECHARGE =        1830.1154

            TOTAL IN =    33392462.0000              TOTAL IN =        3049.5398

          OUT:                                     OUT:
          ----                                     ----
             STORAGE =           0.0000               STORAGE =           0.0000
       CONSTANT HEAD =    30764460.0000         CONSTANT HEAD =        2809.5398
               WELLS =     2628000.0000                 WELLS =         240.0000
            RECHARGE =           0.0000              RECHARGE =           0.0000

           TOTAL OUT =    33392460.0000             TOTAL OUT =        3049.5398

            IN - OUT =           2.0000              IN - OUT =           0.0000

 PERCENT DISCREPANCY =           0.00     PERCENT DISCREPANCY =           0.00






         TIME SUMMARY AT END OF TIME STEP    1 IN STRESS PERIOD    1
                    SECONDS     MINUTES      HOURS       DAYS        YEARS
                    -----------------------------------------------------------
   TIME STEP LENGTH 9.46080E+08 1.57680E+07 2.62800E+05  10950.      29.979    
 STRESS PERIOD TIME 9.46080E+08 1.57680E+07 2.62800E+05  10950.      29.979    
         TOTAL TIME 9.46080E+08 1.57680E+07 2.62800E+05  10950.      29.979    
1

 Run end date and time (yyyy/mm/dd hh:mm:ss): 2019/06/03 11:15:31
 Elapsed run time:  0.993 Seconds

